# generated using pymatgen
data_Sr2PdPt
_symmetry_space_group_name_H-M   'P 1'
_cell_length_a   10.65713553
_cell_length_b   10.65713536
_cell_length_c   37.67866259
_cell_angle_alpha   89.99999984
_cell_angle_beta   90.00000011
_cell_angle_gamma   89.99999699
_symmetry_Int_Tables_number   1
_chemical_formula_structural   Sr2PdPt
_chemical_formula_sum   'Sr32 Pd16 Pt16'
_cell_volume   4279.33661673
_cell_formula_units_Z   16
loop_
 _symmetry_equiv_pos_site_id
 _symmetry_equiv_pos_as_xyz
  1  'x, y, z'
loop_
 _atom_site_type_symbol
 _atom_site_label
 _atom_site_symmetry_multiplicity
 _atom_site_fract_x
 _atom_site_fract_y
 _atom_site_fract_z
 _atom_site_occupancy
  Pd  Pd0  1  0.00000005  0.00000000  0.36837884  1
  Pd  Pd1  1  0.00000005  0.50000000  0.36837884  1
  Pd  Pd2  1  0.50000005  0.00000000  0.36837884  1
  Pd  Pd3  1  0.50000005  0.50000000  0.36837884  1
  Pd  Pd4  1  0.25000003  0.25000000  0.46837884  1
  Pd  Pd5  1  0.25000003  0.75000000  0.46837884  1
  Pd  Pd6  1  0.75000003  0.25000000  0.46837884  1
  Pd  Pd7  1  0.75000003  0.75000000  0.46837884  1
  Pd  Pd8  1  0.00000005  0.00000000  0.56837884  1
  Pd  Pd9  1  0.00000005  0.50000000  0.56837884  1
  Pd  Pd10  1  0.50000005  0.00000000  0.56837884  1
  Pd  Pd11  1  0.50000005  0.50000000  0.56837884  1
  Pd  Pd12  1  0.24999967  0.24999976  0.65162943  1
  Pd  Pd13  1  0.24999964  0.75000018  0.65162980  1
  Pd  Pd14  1  0.75000044  0.25000000  0.65162986  1
  Pd  Pd15  1  0.75000033  0.74999990  0.65162959  1
  Pt  Pt16  1  0.00000005  0.00000000  0.46837884  1
  Pt  Pt17  1  0.00000005  0.50000000  0.46837884  1
  Pt  Pt18  1  0.50000005  0.00000000  0.46837884  1
  Pt  Pt19  1  0.50000005  0.50000000  0.46837884  1
  Pt  Pt20  1  0.25000002  0.25000000  0.36837884  1
  Pt  Pt21  1  0.25000002  0.75000000  0.36837884  1
  Pt  Pt22  1  0.75000002  0.25000000  0.36837884  1
  Pt  Pt23  1  0.75000002  0.75000000  0.36837884  1
  Pt  Pt24  1  0.00000045  0.00000019  0.65184974  1
  Pt  Pt25  1  0.99999986  0.50000041  0.65184987  1
  Pt  Pt26  1  0.49999928  0.00000051  0.65185036  1
  Pt  Pt27  1  0.49999953  0.50000003  0.65185072  1
  Pt  Pt28  1  0.25000002  0.25000000  0.56837884  1
  Pt  Pt29  1  0.25000002  0.75000000  0.56837884  1
  Pt  Pt30  1  0.75000002  0.25000000  0.56837884  1
  Pt  Pt31  1  0.75000002  0.75000000  0.56837884  1
  Sr  Sr32  1  0.25000006  0.00000000  0.31837883  1
  Sr  Sr33  1  0.25000006  0.50000000  0.31837883  1
  Sr  Sr34  1  0.75000006  0.00000000  0.31837883  1
  Sr  Sr35  1  0.75000006  0.50000000  0.31837883  1
  Sr  Sr36  1  0.00000004  0.25000001  0.31837882  1
  Sr  Sr37  1  0.00000004  0.75000001  0.31837882  1
  Sr  Sr38  1  0.50000004  0.25000001  0.31837882  1
  Sr  Sr39  1  0.50000004  0.75000001  0.31837882  1
  Sr  Sr40  1  0.00000001  0.25000000  0.41837885  1
  Sr  Sr41  1  0.00000001  0.75000000  0.41837885  1
  Sr  Sr42  1  0.50000001  0.25000000  0.41837885  1
  Sr  Sr43  1  0.50000001  0.75000000  0.41837885  1
  Sr  Sr44  1  0.25000000  0.49999999  0.41837885  1
  Sr  Sr45  1  0.25000000  0.99999999  0.41837885  1
  Sr  Sr46  1  0.75000000  0.49999999  0.41837885  1
  Sr  Sr47  1  0.75000000  0.99999999  0.41837885  1
  Sr  Sr48  1  0.25000006  0.00000000  0.51837883  1
  Sr  Sr49  1  0.25000006  0.50000000  0.51837883  1
  Sr  Sr50  1  0.75000006  0.00000000  0.51837883  1
  Sr  Sr51  1  0.75000006  0.50000000  0.51837883  1
  Sr  Sr52  1  0.00000004  0.25000001  0.51837882  1
  Sr  Sr53  1  0.00000004  0.75000001  0.51837882  1
  Sr  Sr54  1  0.50000004  0.25000001  0.51837882  1
  Sr  Sr55  1  0.50000004  0.75000001  0.51837882  1
  Sr  Sr56  1  0.00000101  0.24999981  0.61629712  1
  Sr  Sr57  1  0.99999919  0.74999921  0.61629719  1
  Sr  Sr58  1  0.49999875  0.24999758  0.61629708  1
  Sr  Sr59  1  0.50000057  0.75000153  0.61629692  1
  Sr  Sr60  1  0.24999688  0.49999905  0.61629715  1
  Sr  Sr61  1  0.24999895  0.00000130  0.61629717  1
  Sr  Sr62  1  0.75000418  0.50000085  0.61629695  1
  Sr  Sr63  1  0.75000169  0.99999944  0.61629707  1
