# generated using pymatgen
data_Na3Pd
_symmetry_space_group_name_H-M   'P 1'
_cell_length_a   10.42897528
_cell_length_b   14.74879660
_cell_length_c   31.28691209
_cell_angle_alpha   89.99999573
_cell_angle_beta   89.99994836
_cell_angle_gamma   89.99996352
_symmetry_Int_Tables_number   1
_chemical_formula_structural   Na3Pd
_chemical_formula_sum   'Na48 Pd16'
_cell_volume   4812.39122551
_cell_formula_units_Z   16
loop_
 _symmetry_equiv_pos_site_id
 _symmetry_equiv_pos_as_xyz
  1  'x, y, z'
loop_
 _atom_site_type_symbol
 _atom_site_label
 _atom_site_symmetry_multiplicity
 _atom_site_fract_x
 _atom_site_fract_y
 _atom_site_fract_z
 _atom_site_occupancy
  Na  Na0  1  0.12500002  0.12500001  0.54166668  1
  Na  Na1  1  0.12500002  0.62500001  0.54166668  1
  Na  Na2  1  0.62500002  0.12500001  0.54166668  1
  Na  Na3  1  0.62500002  0.62500001  0.54166668  1
  Na  Na4  1  0.37499993  0.13694842  0.62881566  1
  Na  Na5  1  0.37499992  0.63694843  0.62881568  1
  Na  Na6  1  0.87499992  0.13694842  0.62881566  1
  Na  Na7  1  0.87499994  0.63694842  0.62881565  1
  Na  Na8  1  0.12500002  0.49999995  0.62574440  1
  Na  Na9  1  0.12500000  0.99999999  0.62574439  1
  Na  Na10  1  0.62500005  0.49999998  0.62574440  1
  Na  Na11  1  0.62500004  0.99999997  0.62574439  1
  Na  Na12  1  0.37500004  0.36305155  0.62881555  1
  Na  Na13  1  0.37500001  0.86305156  0.62881555  1
  Na  Na14  1  0.87500001  0.36305155  0.62881555  1
  Na  Na15  1  0.87500001  0.86305155  0.62881555  1
  Na  Na16  1  0.12499991  0.37500001  0.54166666  1
  Na  Na17  1  0.12499991  0.87500001  0.54166666  1
  Na  Na18  1  0.62499991  0.37500001  0.54166666  1
  Na  Na19  1  0.62499991  0.87500001  0.54166666  1
  Na  Na20  1  0.37500001  0.25000000  0.54166666  1
  Na  Na21  1  0.37500001  0.75000000  0.54166666  1
  Na  Na22  1  0.87500001  0.25000000  0.54166666  1
  Na  Na23  1  0.87500001  0.75000000  0.54166666  1
  Na  Na24  1  0.12500002  0.12500001  0.37500002  1
  Na  Na25  1  0.12500002  0.62500001  0.37500002  1
  Na  Na26  1  0.62500002  0.12500001  0.37500002  1
  Na  Na27  1  0.62500002  0.62500001  0.37500002  1
  Na  Na28  1  0.37499994  0.12499996  0.45833330  1
  Na  Na29  1  0.37499994  0.62499996  0.45833330  1
  Na  Na30  1  0.87499994  0.12499996  0.45833330  1
  Na  Na31  1  0.87499994  0.62499996  0.45833330  1
  Na  Na32  1  0.12499999  0.50000000  0.45833333  1
  Na  Na33  1  0.12499999  1.00000000  0.45833333  1
  Na  Na34  1  0.62499999  0.50000000  0.45833333  1
  Na  Na35  1  0.62499999  1.00000000  0.45833333  1
  Na  Na36  1  0.37500006  0.37500005  0.45833335  1
  Na  Na37  1  0.37500006  0.87500005  0.45833335  1
  Na  Na38  1  0.87500006  0.37500005  0.45833335  1
  Na  Na39  1  0.87500006  0.87500005  0.45833335  1
  Na  Na40  1  0.12499991  0.37500001  0.37500000  1
  Na  Na41  1  0.12499991  0.87500001  0.37500000  1
  Na  Na42  1  0.62499991  0.37500001  0.37500000  1
  Na  Na43  1  0.62499991  0.87500001  0.37500000  1
  Na  Na44  1  0.37500001  0.25000000  0.37499999  1
  Na  Na45  1  0.37500001  0.75000000  0.37499999  1
  Na  Na46  1  0.87500001  0.25000000  0.37499999  1
  Na  Na47  1  0.87500001  0.75000000  0.37499999  1
  Pd  Pd48  1  0.37500005  0.49999997  0.54166668  1
  Pd  Pd49  1  0.37500005  0.99999997  0.54166668  1
  Pd  Pd50  1  0.87500005  0.49999997  0.54166668  1
  Pd  Pd51  1  0.87500005  0.99999997  0.54166668  1
  Pd  Pd52  1  0.12500002  0.25000001  0.61471710  1
  Pd  Pd53  1  0.12500002  0.75000000  0.61471710  1
  Pd  Pd54  1  0.62500002  0.24999999  0.61471710  1
  Pd  Pd55  1  0.62500001  0.75000000  0.61471710  1
  Pd  Pd56  1  0.37500005  0.49999997  0.37500001  1
  Pd  Pd57  1  0.37500005  0.99999997  0.37500001  1
  Pd  Pd58  1  0.87500005  0.49999997  0.37500001  1
  Pd  Pd59  1  0.87500005  0.99999997  0.37500001  1
  Pd  Pd60  1  0.12500001  0.25000000  0.45833333  1
  Pd  Pd61  1  0.12500001  0.75000000  0.45833333  1
  Pd  Pd62  1  0.62500001  0.25000000  0.45833333  1
  Pd  Pd63  1  0.62500001  0.75000000  0.45833333  1
