# generated using pymatgen
data_Sc2PdRh
_symmetry_space_group_name_H-M   'P 1'
_cell_length_a   9.34665479
_cell_length_b   13.21815817
_cell_length_c   37.38662519
_cell_angle_alpha   89.99996701
_cell_angle_beta   90.00000276
_cell_angle_gamma   89.99998552
_symmetry_Int_Tables_number   1
_chemical_formula_structural   Sc2PdRh
_chemical_formula_sum   'Sc48 Pd24 Rh24'
_cell_volume   4618.95159700
_cell_formula_units_Z   24
loop_
 _symmetry_equiv_pos_site_id
 _symmetry_equiv_pos_as_xyz
  1  'x, y, z'
loop_
 _atom_site_type_symbol
 _atom_site_label
 _atom_site_symmetry_multiplicity
 _atom_site_fract_x
 _atom_site_fract_y
 _atom_site_fract_z
 _atom_site_occupancy
  Pd  Pd0  1  0.12500003  0.99999944  0.65238845  1
  Pd  Pd1  1  0.12500007  0.50000053  0.65238846  1
  Pd  Pd2  1  0.62500001  0.99999979  0.65238855  1
  Pd  Pd3  1  0.62500004  0.50000011  0.65238855  1
  Pd  Pd4  1  0.37500003  0.25000000  0.59374999  1
  Pd  Pd5  1  0.37500003  0.75000000  0.59374999  1
  Pd  Pd6  1  0.87500003  0.25000000  0.59374999  1
  Pd  Pd7  1  0.87500003  0.75000000  0.59374999  1
  Pd  Pd8  1  0.12499997  0.00000000  0.53125000  1
  Pd  Pd9  1  0.12499997  0.50000000  0.53125000  1
  Pd  Pd10  1  0.62499997  0.00000000  0.53125000  1
  Pd  Pd11  1  0.62499997  0.50000000  0.53125000  1
  Pd  Pd12  1  0.37500003  0.25000000  0.46874999  1
  Pd  Pd13  1  0.37500003  0.75000000  0.46874999  1
  Pd  Pd14  1  0.87500003  0.25000000  0.46874999  1
  Pd  Pd15  1  0.87500003  0.75000000  0.46874999  1
  Pd  Pd16  1  0.12499997  0.00000000  0.40625000  1
  Pd  Pd17  1  0.12499997  0.50000000  0.40625000  1
  Pd  Pd18  1  0.62499997  0.00000000  0.40625000  1
  Pd  Pd19  1  0.62499997  0.50000000  0.40625000  1
  Pd  Pd20  1  0.37500003  0.25000000  0.34374999  1
  Pd  Pd21  1  0.37500003  0.75000000  0.34374999  1
  Pd  Pd22  1  0.87500003  0.25000000  0.34374999  1
  Pd  Pd23  1  0.87500003  0.75000000  0.34374999  1
  Rh  Rh24  1  0.37500010  0.49999996  0.59374999  1
  Rh  Rh25  1  0.37500010  0.99999996  0.59374999  1
  Rh  Rh26  1  0.87500010  0.49999996  0.59374999  1
  Rh  Rh27  1  0.87500010  0.99999996  0.59374999  1
  Rh  Rh28  1  0.12499992  0.24999991  0.64967346  1
  Rh  Rh29  1  0.12500005  0.75000000  0.64967721  1
  Rh  Rh30  1  0.62500005  0.24999994  0.64967602  1
  Rh  Rh31  1  0.62500022  0.74999997  0.64967659  1
  Rh  Rh32  1  0.37500010  0.49999996  0.46874999  1
  Rh  Rh33  1  0.37500010  0.99999996  0.46874999  1
  Rh  Rh34  1  0.87500010  0.49999996  0.46874999  1
  Rh  Rh35  1  0.87500010  0.99999996  0.46874999  1
  Rh  Rh36  1  0.12499996  0.24999997  0.53125004  1
  Rh  Rh37  1  0.12499996  0.74999997  0.53125004  1
  Rh  Rh38  1  0.62499996  0.24999997  0.53125004  1
  Rh  Rh39  1  0.62499996  0.74999997  0.53125004  1
  Rh  Rh40  1  0.37500010  0.49999996  0.34374999  1
  Rh  Rh41  1  0.37500010  0.99999996  0.34374999  1
  Rh  Rh42  1  0.87500010  0.49999996  0.34374999  1
  Rh  Rh43  1  0.87500010  0.99999996  0.34374999  1
  Rh  Rh44  1  0.12499996  0.24999997  0.40625004  1
  Rh  Rh45  1  0.12499996  0.74999997  0.40625004  1
  Rh  Rh46  1  0.62499996  0.24999997  0.40625004  1
  Rh  Rh47  1  0.62499996  0.74999997  0.40625004  1
  Sc  Sc48  1  0.12499996  0.12499985  0.59374999  1
  Sc  Sc49  1  0.12499996  0.62499985  0.59374999  1
  Sc  Sc50  1  0.62499996  0.12499985  0.59374999  1
  Sc  Sc51  1  0.62499996  0.62499985  0.59374999  1
  Sc  Sc52  1  0.37500045  0.12708538  0.65652012  1
  Sc  Sc53  1  0.37499984  0.62708582  0.65652051  1
  Sc  Sc54  1  0.87499956  0.12708550  0.65652017  1
  Sc  Sc55  1  0.87499987  0.62708578  0.65652053  1
  Sc  Sc56  1  0.37500044  0.37291444  0.65652008  1
  Sc  Sc57  1  0.37500008  0.87291419  0.65652058  1
  Sc  Sc58  1  0.87499975  0.37291436  0.65652008  1
  Sc  Sc59  1  0.87500011  0.87291414  0.65652058  1
  Sc  Sc60  1  0.12500001  0.37500018  0.59375001  1
  Sc  Sc61  1  0.12500001  0.87500018  0.59375001  1
  Sc  Sc62  1  0.62500001  0.37500018  0.59375001  1
  Sc  Sc63  1  0.62500001  0.87500018  0.59375001  1
  Sc  Sc64  1  0.12499996  0.12499985  0.46874999  1
  Sc  Sc65  1  0.12499996  0.62499985  0.46874999  1
  Sc  Sc66  1  0.62499996  0.12499985  0.46874999  1
  Sc  Sc67  1  0.62499996  0.62499985  0.46874999  1
  Sc  Sc68  1  0.37499996  0.12499984  0.53125000  1
  Sc  Sc69  1  0.37499996  0.62499984  0.53125000  1
  Sc  Sc70  1  0.87499996  0.12499984  0.53125000  1
  Sc  Sc71  1  0.87499996  0.62499984  0.53125000  1
  Sc  Sc72  1  0.37500000  0.37500019  0.53124998  1
  Sc  Sc73  1  0.37500000  0.87500019  0.53124998  1
  Sc  Sc74  1  0.87500000  0.37500019  0.53124998  1
  Sc  Sc75  1  0.87500000  0.87500019  0.53124998  1
  Sc  Sc76  1  0.12500001  0.37500018  0.46875001  1
  Sc  Sc77  1  0.12500001  0.87500018  0.46875001  1
  Sc  Sc78  1  0.62500001  0.37500018  0.46875001  1
  Sc  Sc79  1  0.62500001  0.87500018  0.46875001  1
  Sc  Sc80  1  0.12499996  0.12499985  0.34374999  1
  Sc  Sc81  1  0.12499996  0.62499985  0.34374999  1
  Sc  Sc82  1  0.62499996  0.12499985  0.34374999  1
  Sc  Sc83  1  0.62499996  0.62499985  0.34374999  1
  Sc  Sc84  1  0.37499996  0.12499984  0.40625000  1
  Sc  Sc85  1  0.37499996  0.62499984  0.40625000  1
  Sc  Sc86  1  0.87499996  0.12499984  0.40625000  1
  Sc  Sc87  1  0.87499996  0.62499984  0.40625000  1
  Sc  Sc88  1  0.37500000  0.37500019  0.40624998  1
  Sc  Sc89  1  0.37500000  0.87500019  0.40624998  1
  Sc  Sc90  1  0.87500000  0.37500019  0.40624998  1
  Sc  Sc91  1  0.87500000  0.87500019  0.40624998  1
  Sc  Sc92  1  0.12500001  0.37500018  0.34375001  1
  Sc  Sc93  1  0.12500001  0.87500018  0.34375001  1
  Sc  Sc94  1  0.62500001  0.37500018  0.34375001  1
  Sc  Sc95  1  0.62500001  0.87500018  0.34375001  1
