# generated using pymatgen
data_Na3Pd
_symmetry_space_group_name_H-M   'P 1'
_cell_length_a   9.69670536
_cell_length_b   8.53141561
_cell_length_c   38.78680681
_cell_angle_alpha   90.00006105
_cell_angle_beta   89.99999356
_cell_angle_gamma   89.99998482
_symmetry_Int_Tables_number   1
_chemical_formula_structural   Na3Pd
_chemical_formula_sum   'Na36 Pd12'
_cell_volume   3208.70156272
_cell_formula_units_Z   12
loop_
 _symmetry_equiv_pos_site_id
 _symmetry_equiv_pos_as_xyz
  1  'x, y, z'
loop_
 _atom_site_type_symbol
 _atom_site_label
 _atom_site_symmetry_multiplicity
 _atom_site_fract_x
 _atom_site_fract_y
 _atom_site_fract_z
 _atom_site_occupancy
  Na  Na0  1  0.25000001  0.25000000  0.40624998  1
  Na  Na1  1  0.75000001  0.25000000  0.40624998  1
  Na  Na2  1  0.49999997  0.24999994  0.34375002  1
  Na  Na3  1  0.99999997  0.24999994  0.34375002  1
  Na  Na4  1  0.25000003  0.99999992  0.34375001  1
  Na  Na5  1  0.75000003  0.99999992  0.34375001  1
  Na  Na6  1  0.49999999  0.75000004  0.34374998  1
  Na  Na7  1  0.99999999  0.75000004  0.34374998  1
  Na  Na8  1  0.25000001  0.75000002  0.40625002  1
  Na  Na9  1  0.75000001  0.75000002  0.40625002  1
  Na  Na10  1  0.49999999  0.50000009  0.40625000  1
  Na  Na11  1  0.99999999  0.50000009  0.40625000  1
  Na  Na12  1  0.25000001  0.25000000  0.53124998  1
  Na  Na13  1  0.75000001  0.25000000  0.53124998  1
  Na  Na14  1  0.49999997  0.24999994  0.46875002  1
  Na  Na15  1  0.99999997  0.24999994  0.46875002  1
  Na  Na16  1  0.25000003  0.99999992  0.46875001  1
  Na  Na17  1  0.75000003  0.99999992  0.46875001  1
  Na  Na18  1  0.49999999  0.75000004  0.46874998  1
  Na  Na19  1  0.99999999  0.75000004  0.46874998  1
  Na  Na20  1  0.25000001  0.75000002  0.53125002  1
  Na  Na21  1  0.75000001  0.75000002  0.53125002  1
  Na  Na22  1  0.49999999  0.50000009  0.53125000  1
  Na  Na23  1  0.99999999  0.50000009  0.53125000  1
  Na  Na24  1  0.25000006  0.20762615  0.66582333  1
  Na  Na25  1  0.74999988  0.20762692  0.66582315  1
  Na  Na26  1  0.49999997  0.24999994  0.59375002  1
  Na  Na27  1  0.99999997  0.24999994  0.59375002  1
  Na  Na28  1  0.25000003  0.99999992  0.59375001  1
  Na  Na29  1  0.75000003  0.99999992  0.59375001  1
  Na  Na30  1  0.49999999  0.75000004  0.59374998  1
  Na  Na31  1  0.99999999  0.75000004  0.59374998  1
  Na  Na32  1  0.25000010  0.79237409  0.66582284  1
  Na  Na33  1  0.74999988  0.79237340  0.66582269  1
  Na  Na34  1  0.49999985  0.50000026  0.65231298  1
  Na  Na35  1  0.00000011  0.50000020  0.65231297  1
  Pd  Pd36  1  0.00000003  0.00000003  0.40625000  1
  Pd  Pd37  1  0.50000003  0.00000003  0.40625000  1
  Pd  Pd38  1  0.24999996  0.49999996  0.34375000  1
  Pd  Pd39  1  0.74999996  0.49999996  0.34375000  1
  Pd  Pd40  1  0.00000003  0.00000003  0.53125000  1
  Pd  Pd41  1  0.50000003  0.00000003  0.53125000  1
  Pd  Pd42  1  0.24999996  0.49999996  0.46875000  1
  Pd  Pd43  1  0.74999996  0.49999996  0.46875000  1
  Pd  Pd44  1  0.99999973  0.00000023  0.64769608  1
  Pd  Pd45  1  0.50000020  0.00000023  0.64769596  1
  Pd  Pd46  1  0.24999996  0.49999996  0.59375000  1
  Pd  Pd47  1  0.74999996  0.49999996  0.59375000  1
