# generated using pymatgen
data_Ca5Pd2
_symmetry_space_group_name_H-M   'P 1'
_cell_length_a   9.07056664
_cell_length_b   10.39080486
_cell_length_c   38.43052640
_cell_angle_alpha   92.51717551
_cell_angle_beta   93.81210759
_cell_angle_gamma   98.95675565
_symmetry_Int_Tables_number   1
_chemical_formula_structural   Ca5Pd2
_chemical_formula_sum   'Ca30 Pd12'
_cell_volume   3564.59627253
_cell_formula_units_Z   6
loop_
 _symmetry_equiv_pos_site_id
 _symmetry_equiv_pos_as_xyz
  1  'x, y, z'
loop_
 _atom_site_type_symbol
 _atom_site_label
 _atom_site_symmetry_multiplicity
 _atom_site_fract_x
 _atom_site_fract_y
 _atom_site_fract_z
 _atom_site_occupancy
  Ca  Ca0  1  0.35016986  0.27678200  0.59412862  1
  Ca  Ca1  1  0.63307240  0.41830118  0.66170996  1
  Ca  Ca2  1  0.73214744  0.18750394  0.55048913  1
  Ca  Ca3  1  0.45172474  0.68470631  0.62729411  1
  Ca  Ca4  1  0.98065822  0.24473404  0.64572942  1
  Ca  Ca5  1  0.04680302  0.50778485  0.58552871  1
  Ca  Ca6  1  0.12828151  0.85203006  0.63883339  1
  Ca  Ca7  1  0.40051775  0.95650064  0.56481676  1
  Ca  Ca8  1  0.69881617  0.54651237  0.56969172  1
  Ca  Ca9  1  0.74850174  0.91777363  0.61203752  1
  Ca  Ca10  1  0.73704592  0.65178200  0.47912252  1
  Ca  Ca11  1  0.02412577  0.79362021  0.52080890  1
  Ca  Ca12  1  0.11902350  0.56250394  0.43548303  1
  Ca  Ca13  1  0.44506743  0.04566559  0.50880279  1
  Ca  Ca14  1  0.34930142  0.58375561  0.52292601  1
  Ca  Ca15  1  0.43367908  0.88278485  0.47052261  1
  Ca  Ca16  1  0.11989264  0.25552992  0.50668570  1
  Ca  Ca17  1  0.42239098  0.33150064  0.44408302  1
  Ca  Ca18  1  0.08569223  0.92151237  0.42330149  1
  Ca  Ca19  1  0.77037497  0.29277363  0.45991964  1
  Ca  Ca20  1  0.75891915  0.02678200  0.32700464  1
  Ca  Ca21  1  0.04599900  0.16862021  0.40007515  1
  Ca  Ca22  1  0.50589956  0.93750394  0.32047693  1
  Ca  Ca23  1  0.83194349  0.42066559  0.36241256  1
  Ca  Ca24  1  0.73617748  0.95875561  0.40791991  1
  Ca  Ca25  1  0.45555231  0.25778485  0.34978886  1
  Ca  Ca26  1  0.50676870  0.63052992  0.39167960  1
  Ca  Ca27  1  0.80926704  0.70650064  0.32907692  1
  Ca  Ca28  1  0.10756546  0.29651237  0.30256774  1
  Ca  Ca29  1  0.15725103  0.66777363  0.34491354  1
  Pd  Pd30  1  0.25761688  0.44978216  0.64425587  1
  Pd  Pd31  1  0.65143368  0.18114140  0.62142266  1
  Pd  Pd32  1  0.82279261  0.65482803  0.63469113  1
  Pd  Pd33  1  0.44366808  0.97106995  0.63662693  1
  Pd  Pd34  1  0.62708275  0.80030828  0.53755229  1
  Pd  Pd35  1  0.99134104  0.50672794  0.50481350  1
  Pd  Pd36  1  0.84211035  0.03897732  0.49205933  1
  Pd  Pd37  1  0.47785213  0.33255771  0.52479809  1
  Pd  Pd38  1  0.64895598  0.17530828  0.41681854  1
  Pd  Pd39  1  0.37821710  0.88172794  0.38980740  1
  Pd  Pd40  1  0.22898641  0.41397732  0.37705323  1
  Pd  Pd41  1  0.86472819  0.70755771  0.40979199  1
