# generated using pymatgen
data_ScCu
_symmetry_space_group_name_H-M   'P 1'
_cell_length_a   9.32691840
_cell_length_b   9.32691880
_cell_length_c   56.05856733
_cell_angle_alpha   89.99998808
_cell_angle_beta   45.00000908
_cell_angle_gamma   59.99998061
_symmetry_Int_Tables_number   1
_chemical_formula_structural   ScCu
_chemical_formula_sum   'Sc24 Cu24'
_cell_volume   2438.30698274
_cell_formula_units_Z   24
loop_
 _symmetry_equiv_pos_site_id
 _symmetry_equiv_pos_as_xyz
  1  'x, y, z'
loop_
 _atom_site_type_symbol
 _atom_site_label
 _atom_site_symmetry_multiplicity
 _atom_site_fract_x
 _atom_site_fract_y
 _atom_site_fract_z
 _atom_site_occupancy
  Sc  Sc0  1  0.00000000  0.24999999  0.33823529  1
  Sc  Sc1  1  0.00000000  0.74999999  0.33823529  1
  Sc  Sc2  1  0.50000000  0.24999999  0.33823529  1
  Sc  Sc3  1  0.50000000  0.74999999  0.33823529  1
  Sc  Sc4  1  0.00000000  0.24999999  0.39705882  1
  Sc  Sc5  1  0.00000000  0.74999999  0.39705882  1
  Sc  Sc6  1  0.50000000  0.24999999  0.39705882  1
  Sc  Sc7  1  0.50000000  0.74999999  0.39705882  1
  Sc  Sc8  1  0.00000000  0.24999999  0.45588235  1
  Sc  Sc9  1  0.00000000  0.74999999  0.45588235  1
  Sc  Sc10  1  0.50000000  0.24999999  0.45588235  1
  Sc  Sc11  1  0.50000000  0.74999999  0.45588235  1
  Sc  Sc12  1  0.00000000  0.24999999  0.51470588  1
  Sc  Sc13  1  0.00000000  0.74999999  0.51470588  1
  Sc  Sc14  1  0.50000000  0.24999999  0.51470588  1
  Sc  Sc15  1  0.50000000  0.74999999  0.51470588  1
  Sc  Sc16  1  0.00000000  0.24999999  0.57352941  1
  Sc  Sc17  1  0.00000000  0.74999999  0.57352941  1
  Sc  Sc18  1  0.50000000  0.24999999  0.57352941  1
  Sc  Sc19  1  0.50000000  0.74999999  0.57352941  1
  Sc  Sc20  1  0.99689066  0.25155346  0.63293493  1
  Sc  Sc21  1  0.99689419  0.75155156  0.63293471  1
  Sc  Sc22  1  0.49689472  0.25155150  0.63293449  1
  Sc  Sc23  1  0.49689148  0.75155374  0.63293480  1
  Cu  Cu24  1  0.50000000  0.00000001  0.36764706  1
  Cu  Cu25  1  0.50000000  0.50000001  0.36764706  1
  Cu  Cu26  1  1.00000000  0.00000001  0.36764706  1
  Cu  Cu27  1  1.00000000  0.50000001  0.36764706  1
  Cu  Cu28  1  0.50000000  0.00000001  0.42647059  1
  Cu  Cu29  1  0.50000000  0.50000001  0.42647059  1
  Cu  Cu30  1  1.00000000  0.00000001  0.42647059  1
  Cu  Cu31  1  1.00000000  0.50000001  0.42647059  1
  Cu  Cu32  1  0.50000000  0.00000001  0.48529412  1
  Cu  Cu33  1  0.50000000  0.50000001  0.48529412  1
  Cu  Cu34  1  1.00000000  0.00000001  0.48529412  1
  Cu  Cu35  1  1.00000000  0.50000001  0.48529412  1
  Cu  Cu36  1  0.50000000  0.00000001  0.54411765  1
  Cu  Cu37  1  0.50000000  0.50000001  0.54411765  1
  Cu  Cu38  1  1.00000000  0.00000001  0.54411765  1
  Cu  Cu39  1  1.00000000  0.50000001  0.54411765  1
  Cu  Cu40  1  0.46672212  0.01664280  0.60882110  1
  Cu  Cu41  1  0.46672107  0.51664373  0.60882124  1
  Cu  Cu42  1  0.96672179  0.01664309  0.60882117  1
  Cu  Cu43  1  0.96672247  0.51664244  0.60882106  1
  Cu  Cu44  1  0.55616581  0.97192326  0.65184758  1
  Cu  Cu45  1  0.55616673  0.47192207  0.65184753  1
  Cu  Cu46  1  0.05616720  0.97192164  0.65184746  1
  Cu  Cu47  1  0.05616634  0.47192291  0.65184754  1
