# generated using pymatgen
data_Sc2CuNi
_symmetry_space_group_name_H-M   'P 1'
_cell_length_a   9.19275228
_cell_length_b   9.19275302
_cell_length_c   33.77633845
_cell_angle_alpha   89.99996279
_cell_angle_beta   89.99995382
_cell_angle_gamma   60.00000892
_symmetry_Int_Tables_number   1
_chemical_formula_structural   Sc2CuNi
_chemical_formula_sum   'Sc24 Cu12 Ni12'
_cell_volume   2471.91986578
_cell_formula_units_Z   12
loop_
 _symmetry_equiv_pos_site_id
 _symmetry_equiv_pos_as_xyz
  1  'x, y, z'
loop_
 _atom_site_type_symbol
 _atom_site_label
 _atom_site_symmetry_multiplicity
 _atom_site_fract_x
 _atom_site_fract_y
 _atom_site_fract_z
 _atom_site_occupancy
  Cu  Cu0  1  0.41666701  0.04166779  0.64277212  1
  Cu  Cu1  1  0.41666711  0.54166650  0.64277213  1
  Cu  Cu2  1  0.91666699  0.04166731  0.64277195  1
  Cu  Cu3  1  0.91666761  0.54166717  0.64277222  1
  Cu  Cu4  1  0.25000001  0.37499998  0.53891502  1
  Cu  Cu5  1  0.25000001  0.87499998  0.53891502  1
  Cu  Cu6  1  0.75000001  0.37499998  0.53891502  1
  Cu  Cu7  1  0.75000001  0.87499998  0.53891502  1
  Cu  Cu8  1  0.08333331  0.20833332  0.42780380  1
  Cu  Cu9  1  0.08333331  0.70833332  0.42780380  1
  Cu  Cu10  1  0.58333331  0.20833332  0.42780380  1
  Cu  Cu11  1  0.58333331  0.70833332  0.42780380  1
  Ni  Ni12  1  0.08333339  0.20833350  0.59319637  1
  Ni  Ni13  1  0.08333331  0.70833348  0.59319651  1
  Ni  Ni14  1  0.58333317  0.20833355  0.59319641  1
  Ni  Ni15  1  0.58333330  0.70833349  0.59319627  1
  Ni  Ni16  1  0.41666660  0.04166667  0.48335925  1
  Ni  Ni17  1  0.41666660  0.54166667  0.48335925  1
  Ni  Ni18  1  0.91666660  0.04166667  0.48335925  1
  Ni  Ni19  1  0.91666660  0.54166667  0.48335925  1
  Ni  Ni20  1  0.25000000  0.37500000  0.37224835  1
  Ni  Ni21  1  0.25000000  0.87500000  0.37224835  1
  Ni  Ni22  1  0.75000000  0.37500000  0.37224835  1
  Ni  Ni23  1  0.75000000  0.87500000  0.37224835  1
  Sc  Sc24  1  0.25000006  0.37500068  0.62234365  1
  Sc  Sc25  1  0.25000019  0.87499964  0.62234396  1
  Sc  Sc26  1  0.75000018  0.37500009  0.62234433  1
  Sc  Sc27  1  0.75000069  0.87500033  0.62234360  1
  Sc  Sc28  1  0.41666654  0.04166670  0.56669258  1
  Sc  Sc29  1  0.41666654  0.54166670  0.56669258  1
  Sc  Sc30  1  0.91666654  0.04166670  0.56669258  1
  Sc  Sc31  1  0.91666654  0.54166670  0.56669258  1
  Sc  Sc32  1  0.08333326  0.20833331  0.51113712  1
  Sc  Sc33  1  0.08333326  0.70833331  0.51113712  1
  Sc  Sc34  1  0.58333326  0.20833331  0.51113712  1
  Sc  Sc35  1  0.58333326  0.70833331  0.51113712  1
  Sc  Sc36  1  0.24999994  0.37500003  0.45558169  1
  Sc  Sc37  1  0.24999994  0.87500003  0.45558169  1
  Sc  Sc38  1  0.74999994  0.37500003  0.45558169  1
  Sc  Sc39  1  0.74999994  0.87500003  0.45558169  1
  Sc  Sc40  1  0.41666656  0.04166665  0.40002590  1
  Sc  Sc41  1  0.41666656  0.54166665  0.40002590  1
  Sc  Sc42  1  0.91666656  0.04166665  0.40002590  1
  Sc  Sc43  1  0.91666656  0.54166665  0.40002590  1
  Sc  Sc44  1  0.08333324  0.20833337  0.34447047  1
  Sc  Sc45  1  0.08333324  0.70833337  0.34447047  1
  Sc  Sc46  1  0.58333324  0.20833337  0.34447047  1
  Sc  Sc47  1  0.58333324  0.70833337  0.34447047  1
