# generated using pymatgen
data_Ca2PtAu
_symmetry_space_group_name_H-M   'P 1'
_cell_length_a   10.25339869
_cell_length_b   14.50049686
_cell_length_c   30.76019776
_cell_angle_alpha   89.99999992
_cell_angle_beta   90.00000598
_cell_angle_gamma   89.99999676
_symmetry_Int_Tables_number   1
_chemical_formula_structural   Ca2PtAu
_chemical_formula_sum   'Ca32 Pt16 Au16'
_cell_volume   4573.40699348
_cell_formula_units_Z   16
loop_
 _symmetry_equiv_pos_site_id
 _symmetry_equiv_pos_as_xyz
  1  'x, y, z'
loop_
 _atom_site_type_symbol
 _atom_site_label
 _atom_site_symmetry_multiplicity
 _atom_site_fract_x
 _atom_site_fract_y
 _atom_site_fract_z
 _atom_site_occupancy
  Au  Au0  1  0.37500002  0.50000001  0.62412480  1
  Au  Au1  1  0.37500001  0.00000001  0.62412480  1
  Au  Au2  1  0.87500001  0.50000001  0.62412480  1
  Au  Au3  1  0.87500000  0.00000001  0.62412480  1
  Au  Au4  1  0.12500000  0.25000000  0.54166667  1
  Au  Au5  1  0.12500000  0.75000000  0.54166667  1
  Au  Au6  1  0.62500000  0.25000000  0.54166667  1
  Au  Au7  1  0.62500000  0.75000000  0.54166667  1
  Au  Au8  1  0.37500000  0.50000000  0.45833334  1
  Au  Au9  1  0.37500000  1.00000000  0.45833334  1
  Au  Au10  1  0.87500000  0.50000000  0.45833334  1
  Au  Au11  1  0.87500000  1.00000000  0.45833334  1
  Au  Au12  1  0.12500000  0.25000000  0.37500000  1
  Au  Au13  1  0.12500000  0.75000000  0.37500000  1
  Au  Au14  1  0.62500000  0.25000000  0.37500000  1
  Au  Au15  1  0.62500000  0.75000000  0.37500000  1
  Ca  Ca16  1  0.12500001  0.12734064  0.62435094  1
  Ca  Ca17  1  0.12500003  0.62734061  0.62435094  1
  Ca  Ca18  1  0.62500002  0.12734062  0.62435094  1
  Ca  Ca19  1  0.62500002  0.62734064  0.62435093  1
  Ca  Ca20  1  0.37500003  0.12499979  0.54166666  1
  Ca  Ca21  1  0.37500003  0.62499979  0.54166666  1
  Ca  Ca22  1  0.87500003  0.12499979  0.54166666  1
  Ca  Ca23  1  0.87500003  0.62499979  0.54166666  1
  Ca  Ca24  1  0.37499998  0.37500020  0.54166667  1
  Ca  Ca25  1  0.37499998  0.87500020  0.54166667  1
  Ca  Ca26  1  0.87499998  0.37500020  0.54166667  1
  Ca  Ca27  1  0.87499998  0.87500020  0.54166667  1
  Ca  Ca28  1  0.12500000  0.37265940  0.62435096  1
  Ca  Ca29  1  0.12500000  0.87265936  0.62435094  1
  Ca  Ca30  1  0.62500000  0.37265937  0.62435094  1
  Ca  Ca31  1  0.62500001  0.87265939  0.62435096  1
  Ca  Ca32  1  0.12500001  0.12499979  0.45833333  1
  Ca  Ca33  1  0.12500001  0.62499979  0.45833333  1
  Ca  Ca34  1  0.62500001  0.12499979  0.45833333  1
  Ca  Ca35  1  0.62500001  0.62499979  0.45833333  1
  Ca  Ca36  1  0.37500003  0.12499979  0.37499999  1
  Ca  Ca37  1  0.37500003  0.62499979  0.37499999  1
  Ca  Ca38  1  0.87500003  0.12499979  0.37499999  1
  Ca  Ca39  1  0.87500003  0.62499979  0.37499999  1
  Ca  Ca40  1  0.37499998  0.37500020  0.37500001  1
  Ca  Ca41  1  0.37499998  0.87500020  0.37500001  1
  Ca  Ca42  1  0.87499998  0.37500020  0.37500001  1
  Ca  Ca43  1  0.87499998  0.87500020  0.37500001  1
  Ca  Ca44  1  0.12499998  0.37500021  0.45833333  1
  Ca  Ca45  1  0.12499998  0.87500021  0.45833333  1
  Ca  Ca46  1  0.62499998  0.37500021  0.45833333  1
  Ca  Ca47  1  0.62499998  0.87500021  0.45833333  1
  Pt  Pt48  1  0.12500000  0.00000000  0.54166667  1
  Pt  Pt49  1  0.12500000  0.50000000  0.54166667  1
  Pt  Pt50  1  0.62500000  0.00000000  0.54166667  1
  Pt  Pt51  1  0.62500000  0.50000000  0.54166667  1
  Pt  Pt52  1  0.37500001  0.24999999  0.61655114  1
  Pt  Pt53  1  0.37500003  0.74999999  0.61655114  1
  Pt  Pt54  1  0.87500001  0.25000000  0.61655115  1
  Pt  Pt55  1  0.87500000  0.74999998  0.61655114  1
  Pt  Pt56  1  0.12500000  0.00000000  0.37500000  1
  Pt  Pt57  1  0.12500000  0.50000000  0.37500000  1
  Pt  Pt58  1  0.62500000  0.00000000  0.37500000  1
  Pt  Pt59  1  0.62500000  0.50000000  0.37500000  1
  Pt  Pt60  1  0.37500000  0.25000000  0.45833333  1
  Pt  Pt61  1  0.37500000  0.75000000  0.45833333  1
  Pt  Pt62  1  0.87500000  0.25000000  0.45833333  1
  Pt  Pt63  1  0.87500000  0.75000000  0.45833333  1
