# generated using pymatgen
data_CaMgPd
_symmetry_space_group_name_H-M   'P 1'
_cell_length_a   8.79303293
_cell_length_b   8.65224706
_cell_length_c   37.39994132
_cell_angle_alpha   89.99997378
_cell_angle_beta   89.99999303
_cell_angle_gamma   89.99999907
_symmetry_Int_Tables_number   1
_chemical_formula_structural   CaMgPd
_chemical_formula_sum   'Ca16 Mg16 Pd16'
_cell_volume   2845.36858571
_cell_formula_units_Z   16
loop_
 _symmetry_equiv_pos_site_id
 _symmetry_equiv_pos_as_xyz
  1  'x, y, z'
loop_
 _atom_site_type_symbol
 _atom_site_label
 _atom_site_symmetry_multiplicity
 _atom_site_fract_x
 _atom_site_fract_y
 _atom_site_fract_z
 _atom_site_occupancy
  Ca  Ca0  1  0.37499991  0.32429285  0.44404899  1
  Ca  Ca1  1  0.87499991  0.32429285  0.44404899  1
  Ca  Ca2  1  0.37499995  0.17570742  0.34404903  1
  Ca  Ca3  1  0.87499995  0.17570742  0.34404903  1
  Ca  Ca4  1  0.12500008  0.67570745  0.45595083  1
  Ca  Ca5  1  0.62500008  0.67570745  0.45595083  1
  Ca  Ca6  1  0.12500003  0.82429230  0.35595107  1
  Ca  Ca7  1  0.62500003  0.82429230  0.35595107  1
  Ca  Ca8  1  0.37499998  0.31488166  0.64079366  1
  Ca  Ca9  1  0.87499997  0.31488165  0.64079365  1
  Ca  Ca10  1  0.37499995  0.17570742  0.54404903  1
  Ca  Ca11  1  0.87499995  0.17570742  0.54404903  1
  Ca  Ca12  1  0.12500001  0.68111224  0.65677332  1
  Ca  Ca13  1  0.62500001  0.68111224  0.65677332  1
  Ca  Ca14  1  0.12500003  0.82429230  0.55595107  1
  Ca  Ca15  1  0.62500003  0.82429230  0.55595107  1
  Mg  Mg16  1  0.37500002  0.93806253  0.42195057  1
  Mg  Mg17  1  0.87500002  0.93806253  0.42195057  1
  Mg  Mg18  1  0.37500001  0.56193748  0.32195059  1
  Mg  Mg19  1  0.87500001  0.56193748  0.32195059  1
  Mg  Mg20  1  0.12499999  0.06193735  0.47804944  1
  Mg  Mg21  1  0.62499999  0.06193735  0.47804944  1
  Mg  Mg22  1  0.12500000  0.43806271  0.37804945  1
  Mg  Mg23  1  0.62500000  0.43806271  0.37804945  1
  Mg  Mg24  1  0.37500002  0.93806253  0.62195057  1
  Mg  Mg25  1  0.87500002  0.93806253  0.62195057  1
  Mg  Mg26  1  0.37500001  0.56193748  0.52195059  1
  Mg  Mg27  1  0.87500001  0.56193748  0.52195059  1
  Mg  Mg28  1  0.12500000  0.05256764  0.67812862  1
  Mg  Mg29  1  0.62499999  0.05256764  0.67812862  1
  Mg  Mg30  1  0.12500000  0.43806271  0.57804945  1
  Mg  Mg31  1  0.62500000  0.43806271  0.57804945  1
  Pd  Pd32  1  0.37500002  0.62543253  0.39572293  1
  Pd  Pd33  1  0.87500002  0.62543253  0.39572293  1
  Pd  Pd34  1  0.37500011  0.87456738  0.49572294  1
  Pd  Pd35  1  0.87500011  0.87456738  0.49572294  1
  Pd  Pd36  1  0.12499999  0.37456752  0.30427710  1
  Pd  Pd37  1  0.62499999  0.37456752  0.30427710  1
  Pd  Pd38  1  0.12499988  0.12543247  0.40427707  1
  Pd  Pd39  1  0.62499988  0.12543247  0.40427707  1
  Pd  Pd40  1  0.37500002  0.62543253  0.59572293  1
  Pd  Pd41  1  0.87500002  0.62543253  0.59572293  1
  Pd  Pd42  1  0.37499999  0.88385504  0.69083928  1
  Pd  Pd43  1  0.87499999  0.88385504  0.69083927  1
  Pd  Pd44  1  0.12499999  0.37456752  0.50427710  1
  Pd  Pd45  1  0.62499999  0.37456752  0.50427710  1
  Pd  Pd46  1  0.12499988  0.12543247  0.60427707  1
  Pd  Pd47  1  0.62499988  0.12543247  0.60427707  1
