# generated using pymatgen
data_SrMgPt
_symmetry_space_group_name_H-M   'P 1'
_cell_length_a   9.04114744
_cell_length_b   11.64973020
_cell_length_c   46.16039537
_cell_angle_alpha   131.32985586
_cell_angle_beta   89.99999962
_cell_angle_gamma   89.99999942
_symmetry_Int_Tables_number   1
_chemical_formula_structural   SrMgPt
_chemical_formula_sum   'Sr16 Mg16 Pt16'
_cell_volume   3650.92303337
_cell_formula_units_Z   16
loop_
 _symmetry_equiv_pos_site_id
 _symmetry_equiv_pos_as_xyz
  1  'x, y, z'
loop_
 _atom_site_type_symbol
 _atom_site_label
 _atom_site_symmetry_multiplicity
 _atom_site_fract_x
 _atom_site_fract_y
 _atom_site_fract_z
 _atom_site_occupancy
  Sr  Sr0  1  0.37500000  0.67818607  0.49583868  1
  Sr  Sr1  1  0.87500000  0.67818607  0.49583868  1
  Sr  Sr2  1  0.37500024  0.81824333  0.60548807  1
  Sr  Sr3  1  0.87500038  0.81824336  0.60548807  1
  Sr  Sr4  1  0.12500003  0.32181395  0.59409192  1
  Sr  Sr5  1  0.62500003  0.32181395  0.59409192  1
  Sr  Sr6  1  0.12500008  0.20661826  0.65577058  1
  Sr  Sr7  1  0.62500007  0.20661830  0.65577052  1
  Sr  Sr8  1  0.37500000  0.67818607  0.32917202  1
  Sr  Sr9  1  0.87500000  0.67818607  0.32917202  1
  Sr  Sr10  1  0.37500001  0.82181390  0.43644332  1
  Sr  Sr11  1  0.87500001  0.82181390  0.43644332  1
  Sr  Sr12  1  0.12500003  0.32181395  0.42742525  1
  Sr  Sr13  1  0.62500003  0.32181395  0.42742525  1
  Sr  Sr14  1  0.12500003  0.17818612  0.48682060  1
  Sr  Sr15  1  0.62500003  0.17818612  0.48682060  1
  Mg  Mg16  1  0.37500004  0.06253326  0.57838197  1
  Mg  Mg17  1  0.87500004  0.06253326  0.57838197  1
  Mg  Mg18  1  0.37500002  0.43746672  0.55753755  1
  Mg  Mg19  1  0.87500002  0.43746672  0.55753755  1
  Mg  Mg20  1  0.12500000  0.93746673  0.51154861  1
  Mg  Mg21  1  0.62500000  0.93746673  0.51154861  1
  Mg  Mg22  1  0.12500002  0.56253327  0.53239304  1
  Mg  Mg23  1  0.62500002  0.56253327  0.53239304  1
  Mg  Mg24  1  0.37500004  0.06253326  0.41171531  1
  Mg  Mg25  1  0.87500004  0.06253326  0.41171531  1
  Mg  Mg26  1  0.37500002  0.43746672  0.39087089  1
  Mg  Mg27  1  0.87500002  0.43746672  0.39087089  1
  Mg  Mg28  1  0.12500000  0.93746673  0.34488195  1
  Mg  Mg29  1  0.62500000  0.93746673  0.34488195  1
  Mg  Mg30  1  0.12500002  0.56253327  0.36572637  1
  Mg  Mg31  1  0.62500002  0.56253327  0.36572637  1
  Pt  Pt32  1  0.37499993  0.34179409  0.64522915  1
  Pt  Pt33  1  0.87500007  0.34179407  0.64522913  1
  Pt  Pt34  1  0.37500004  0.11719170  0.52799515  1
  Pt  Pt35  1  0.87500004  0.11719170  0.52799515  1
  Pt  Pt36  1  0.12500008  0.59172897  0.59330712  1
  Pt  Pt37  1  0.62500010  0.59172891  0.59330711  1
  Pt  Pt38  1  0.12500000  0.88280828  0.56193543  1
  Pt  Pt39  1  0.62500000  0.88280828  0.56193543  1
  Pt  Pt40  1  0.37500002  0.38280828  0.48893125  1
  Pt  Pt41  1  0.87500002  0.38280828  0.48893125  1
  Pt  Pt42  1  0.37500004  0.11719170  0.36132848  1
  Pt  Pt43  1  0.87500004  0.11719170  0.36132848  1
  Pt  Pt44  1  0.12500002  0.61719171  0.43433267  1
  Pt  Pt45  1  0.62500002  0.61719171  0.43433267  1
  Pt  Pt46  1  0.12500000  0.88280828  0.39526877  1
  Pt  Pt47  1  0.62500000  0.88280828  0.39526877  1
