# generated using pymatgen
data_Ca5CdCu2
_symmetry_space_group_name_H-M   'P 1'
_cell_length_a   11.40795293
_cell_length_b   17.00747176
_cell_length_c   48.39989803
_cell_angle_alpha   118.31380441
_cell_angle_beta   134.99992553
_cell_angle_gamma   70.40431540
_symmetry_Int_Tables_number   1
_chemical_formula_structural   Ca5CdCu2
_chemical_formula_sum   'Ca40 Cd8 Cu16'
_cell_volume   5845.73771482
_cell_formula_units_Z   8
loop_
 _symmetry_equiv_pos_site_id
 _symmetry_equiv_pos_as_xyz
  1  'x, y, z'
loop_
 _atom_site_type_symbol
 _atom_site_label
 _atom_site_symmetry_multiplicity
 _atom_site_fract_x
 _atom_site_fract_y
 _atom_site_fract_z
 _atom_site_occupancy
  Ca  Ca0  1  0.16829953  0.36002425  0.35047885  1
  Ca  Ca1  1  0.83170085  0.36002426  0.40494595  1
  Ca  Ca2  1  0.66829885  0.36002424  0.46104568  1
  Ca  Ca3  1  0.33170070  0.36002446  0.46104570  1
  Ca  Ca4  1  0.33170058  0.13997594  0.36827129  1
  Ca  Ca5  1  0.66829809  0.13997601  0.48047044  1
  Ca  Ca6  1  0.83170095  0.13997628  0.42437121  1
  Ca  Ca7  1  0.16830023  0.13997606  0.42437112  1
  Ca  Ca8  1  0.49999948  0.00000011  0.48437484  1
  Ca  Ca9  1  0.00000042  0.00000017  0.48437503  1
  Ca  Ca10  1  0.66829831  0.86002401  0.43381182  1
  Ca  Ca11  1  0.33170049  0.86002418  0.48827927  1
  Ca  Ca12  1  0.16830044  0.86002395  0.37771246  1
  Ca  Ca13  1  0.83170057  0.86002379  0.37771239  1
  Ca  Ca14  1  0.83170083  0.63997566  0.45160452  1
  Ca  Ca15  1  0.16829940  0.63997553  0.39713739  1
  Ca  Ca16  1  0.33170058  0.63997549  0.34103757  1
  Ca  Ca17  1  0.66829888  0.63997550  0.34103753  1
  Ca  Ca18  1  0.00000090  0.49999999  0.40104187  1
  Ca  Ca19  1  0.49999924  0.49999990  0.40104166  1
  Ca  Ca20  1  0.16829953  0.36002425  0.51714552  1
  Ca  Ca21  1  0.83170085  0.36002426  0.57161262  1
  Ca  Ca22  1  0.66484874  0.36451215  0.62690365  1
  Ca  Ca23  1  0.32578122  0.36460445  0.62692865  1
  Ca  Ca24  1  0.33170058  0.13997594  0.53493796  1
  Ca  Ca25  1  0.64722661  0.14721990  0.64131797  1
  Ca  Ca26  1  0.83170095  0.13997628  0.59103788  1
  Ca  Ca27  1  0.16830023  0.13997606  0.59103778  1
  Ca  Ca28  1  0.49814276  0.99762291  0.65204347  1
  Ca  Ca29  1  0.01020151  0.99756905  0.65202083  1
  Ca  Ca30  1  0.65432943  0.85622576  0.59515669  1
  Ca  Ca31  1  0.31781307  0.84968040  0.64858102  1
  Ca  Ca32  1  0.16830044  0.86002395  0.54437912  1
  Ca  Ca33  1  0.83170057  0.86002379  0.54437906  1
  Ca  Ca34  1  0.83059873  0.63696694  0.61736124  1
  Ca  Ca35  1  0.16829940  0.63997553  0.56380406  1
  Ca  Ca36  1  0.33170058  0.63997549  0.50770423  1
  Ca  Ca37  1  0.66829888  0.63997550  0.50770420  1
  Ca  Ca38  1  0.00000090  0.49999999  0.56770853  1
  Ca  Ca39  1  0.49999924  0.49999990  0.56770832  1
  Cd  Cd40  1  0.99999987  0.24999905  0.35937485  1
  Cd  Cd41  1  0.49999998  0.24999912  0.35937483  1
  Cd  Cd42  1  0.49999997  0.75000098  0.44270847  1
  Cd  Cd43  1  0.99999988  0.75000103  0.44270850  1
  Cd  Cd44  1  0.99999987  0.24999905  0.52604151  1
  Cd  Cd45  1  0.49999998  0.24999912  0.52604149  1
  Cd  Cd46  1  0.50148892  0.75304441  0.60939017  1
  Cd  Cd47  1  0.99561541  0.75300561  0.60932153  1
  Cu  Cu48  1  0.61435662  0.00000008  0.40104169  1
  Cu  Cu49  1  0.38564466  0.00000007  0.40104167  1
  Cu  Cu50  1  0.11435575  0.99999994  0.43916024  1
  Cu  Cu51  1  0.88564431  0.00000022  0.36292312  1
  Cu  Cu52  1  0.11435681  0.49999992  0.48437497  1
  Cu  Cu53  1  0.88564255  0.49999992  0.48437497  1
  Cu  Cu54  1  0.61435643  0.49999980  0.35582713  1
  Cu  Cu55  1  0.38564386  0.50000007  0.44625631  1
  Cu  Cu56  1  0.61435662  0.00000008  0.56770836  1
  Cu  Cu57  1  0.38564466  0.00000007  0.56770833  1
  Cu  Cu58  1  0.11580612  0.99568716  0.60556553  1
  Cu  Cu59  1  0.88564431  0.00000022  0.52958979  1
  Cu  Cu60  1  0.09206433  0.49125015  0.64318615  1
  Cu  Cu61  1  0.86952392  0.49143524  0.64317366  1
  Cu  Cu62  1  0.61435643  0.49999980  0.52249379  1
  Cu  Cu63  1  0.36347158  0.48980075  0.60381267  1
