# generated using pymatgen
data_Ca5CdCu2
_symmetry_space_group_name_H-M   'P 1'
_cell_length_a   8.06665136
_cell_length_b   9.41175695
_cell_length_c   35.57128989
_cell_angle_alpha   93.09053358
_cell_angle_beta   90.00012700
_cell_angle_gamma   115.37495776
_symmetry_Int_Tables_number   1
_chemical_formula_structural   Ca5CdCu2
_chemical_formula_sum   'Ca20 Cd4 Cu8'
_cell_volume   2435.72404643
_cell_formula_units_Z   4
loop_
 _symmetry_equiv_pos_site_id
 _symmetry_equiv_pos_as_xyz
  1  'x, y, z'
loop_
 _atom_site_type_symbol
 _atom_site_label
 _atom_site_symmetry_multiplicity
 _atom_site_fract_x
 _atom_site_fract_y
 _atom_site_fract_z
 _atom_site_occupancy
  Ca  Ca0  1  0.06640881  0.79621901  0.46844167  1
  Ca  Ca1  1  0.79713003  0.93085845  0.40112271  1
  Ca  Ca2  1  0.53372930  0.73085829  0.50112251  1
  Ca  Ca3  1  0.32981004  0.99621879  0.36844194  1
  Ca  Ca4  1  0.02109234  0.37878091  0.45711256  1
  Ca  Ca5  1  0.49037024  0.64414165  0.32443250  1
  Ca  Ca6  1  0.55377259  0.44414155  0.42443183  1
  Ca  Ca7  1  0.95769086  0.57878101  0.35711233  1
  Ca  Ca8  1  0.14375161  0.28750012  0.36277737  1
  Ca  Ca9  1  0.54375156  0.08749999  0.46277692  1
  Ca  Ca10  1  0.85407601  0.39300681  0.66640980  1
  Ca  Ca11  1  0.59713079  0.53085845  0.60112171  1
  Ca  Ca12  1  0.34814974  0.33704578  0.69717411  1
  Ca  Ca13  1  0.12981080  0.59621879  0.56844194  1
  Ca  Ca14  1  0.83163242  0.97495194  0.65657377  1
  Ca  Ca15  1  0.29037101  0.24414165  0.52443150  1
  Ca  Ca16  1  0.35377335  0.04414155  0.62443183  1
  Ca  Ca17  1  0.75769162  0.17878101  0.55711233  1
  Ca  Ca18  1  0.94375047  0.88750012  0.56277687  1
  Ca  Ca19  1  0.34143015  0.69690740  0.66548801  1
  Cd  Cd20  1  0.94375015  0.88750002  0.31277689  1
  Cd  Cd21  1  0.34375058  0.68750013  0.41277740  1
  Cd  Cd22  1  0.74375091  0.48750002  0.51277689  1
  Cd  Cd23  1  0.14375134  0.28750013  0.61277740  1
  Cu  Cu24  1  0.18097970  0.13324268  0.43990515  1
  Cu  Cu25  1  0.90652416  0.04175747  0.48564853  1
  Cu  Cu26  1  0.73523620  0.24175734  0.38564820  1
  Cu  Cu27  1  0.55226665  0.33324260  0.33990561  1
  Cu  Cu28  1  0.98097856  0.73324268  0.63990565  1
  Cu  Cu29  1  0.69096004  0.63416182  0.67975206  1
  Cu  Cu30  1  0.53523506  0.84175734  0.58564870  1
  Cu  Cu31  1  0.35226551  0.93324260  0.53990611  1
