# generated using pymatgen
data_Cd3Pd
_symmetry_space_group_name_H-M   'P 1'
_cell_length_a   8.45662647
_cell_length_b   10.78738173
_cell_length_c   34.51834369
_cell_angle_alpha   86.59536340
_cell_angle_beta   86.48858711
_cell_angle_gamma   66.92296279
_symmetry_Int_Tables_number   1
_chemical_formula_structural   Cd3Pd
_chemical_formula_sum   'Cd36 Pd12'
_cell_volume   2889.36355200
_cell_formula_units_Z   12
loop_
 _symmetry_equiv_pos_site_id
 _symmetry_equiv_pos_as_xyz
  1  'x, y, z'
loop_
 _atom_site_type_symbol
 _atom_site_label
 _atom_site_symmetry_multiplicity
 _atom_site_fract_x
 _atom_site_fract_y
 _atom_site_fract_z
 _atom_site_occupancy
  Cd  Cd0  1  0.20011720  0.27083334  0.34082271  1
  Cd  Cd1  1  0.20011720  0.77083334  0.34082271  1
  Cd  Cd2  1  0.70011720  0.27083334  0.34082271  1
  Cd  Cd3  1  0.70011720  0.77083334  0.34082271  1
  Cd  Cd4  1  0.42280186  0.35416666  0.40345700  1
  Cd  Cd5  1  0.42280186  0.85416666  0.40345700  1
  Cd  Cd6  1  0.92280186  0.35416666  0.40345700  1
  Cd  Cd7  1  0.92280186  0.85416666  0.40345700  1
  Cd  Cd8  1  0.06007224  0.06250000  0.37591191  1
  Cd  Cd9  1  0.06007224  0.56250000  0.37591191  1
  Cd  Cd10  1  0.56007224  0.06250000  0.37591191  1
  Cd  Cd11  1  0.56007224  0.56250000  0.37591191  1
  Cd  Cd12  1  0.14548651  0.43750000  0.46609129  1
  Cd  Cd13  1  0.14548651  0.93750000  0.46609129  1
  Cd  Cd14  1  0.64548651  0.43750000  0.46609129  1
  Cd  Cd15  1  0.64548651  0.93750000  0.46609129  1
  Cd  Cd16  1  0.36539658  0.02083333  0.50625978  1
  Cd  Cd17  1  0.36539658  0.52083333  0.50625978  1
  Cd  Cd18  1  0.86539658  0.02083333  0.50625978  1
  Cd  Cd19  1  0.86539658  0.52083333  0.50625978  1
  Cd  Cd20  1  0.00544154  0.22916667  0.48617554  1
  Cd  Cd21  1  0.00544154  0.72916667  0.48617554  1
  Cd  Cd22  1  0.50544154  0.22916667  0.48617554  1
  Cd  Cd23  1  0.50544154  0.72916667  0.48617554  1
  Cd  Cd24  1  0.08808123  0.10416667  0.56889407  1
  Cd  Cd25  1  0.08808123  0.60416667  0.56889407  1
  Cd  Cd26  1  0.58808123  0.10416667  0.56889407  1
  Cd  Cd27  1  0.58808123  0.60416667  0.56889407  1
  Cd  Cd28  1  0.29195169  0.18597323  0.63958427  1
  Cd  Cd29  1  0.29195174  0.68597321  0.63958432  1
  Cd  Cd30  1  0.79195169  0.18597324  0.63958427  1
  Cd  Cd31  1  0.79195174  0.68597319  0.63958431  1
  Cd  Cd32  1  0.45081085  0.39583334  0.59643916  1
  Cd  Cd33  1  0.45081085  0.89583334  0.59643916  1
  Cd  Cd34  1  0.95081085  0.39583334  0.59643916  1
  Cd  Cd35  1  0.95081085  0.89583334  0.59643916  1
  Pd  Pd36  1  0.28275689  0.14583333  0.42354125  1
  Pd  Pd37  1  0.28275689  0.64583333  0.42354125  1
  Pd  Pd38  1  0.78275689  0.14583333  0.42354125  1
  Pd  Pd39  1  0.78275689  0.64583333  0.42354125  1
  Pd  Pd40  1  0.22812619  0.31250000  0.54880982  1
  Pd  Pd41  1  0.22812619  0.81250000  0.54880982  1
  Pd  Pd42  1  0.72812619  0.31250000  0.54880982  1
  Pd  Pd43  1  0.72812619  0.81250000  0.54880982  1
  Pd  Pd44  1  0.14448286  0.48412939  0.64171464  1
  Pd  Pd45  1  0.14448283  0.98412937  0.64171464  1
  Pd  Pd46  1  0.64448281  0.48412940  0.64171464  1
  Pd  Pd47  1  0.64448282  0.98412940  0.64171464  1
