# generated using pymatgen
data_Sc2PdRh
_symmetry_space_group_name_H-M   'P 1'
_cell_length_a   9.34665359
_cell_length_b   9.34665503
_cell_length_c   34.34179018
_cell_angle_alpha   89.99996064
_cell_angle_beta   89.99995004
_cell_angle_gamma   60.00000336
_symmetry_Int_Tables_number   1
_chemical_formula_structural   Sc2PdRh
_chemical_formula_sum   'Sc24 Pd12 Rh12'
_cell_volume   2598.16027144
_cell_formula_units_Z   12
loop_
 _symmetry_equiv_pos_site_id
 _symmetry_equiv_pos_as_xyz
  1  'x, y, z'
loop_
 _atom_site_type_symbol
 _atom_site_label
 _atom_site_symmetry_multiplicity
 _atom_site_fract_x
 _atom_site_fract_y
 _atom_site_fract_z
 _atom_site_occupancy
  Pd  Pd0  1  0.25000001  0.37500000  0.36978386  1
  Pd  Pd1  1  0.25000001  0.87500000  0.36978386  1
  Pd  Pd2  1  0.75000001  0.37500000  0.36978386  1
  Pd  Pd3  1  0.75000001  0.87500000  0.36978386  1
  Pd  Pd4  1  0.41666670  0.04166667  0.48089473  1
  Pd  Pd5  1  0.41666670  0.54166667  0.48089473  1
  Pd  Pd6  1  0.91666670  0.04166667  0.48089473  1
  Pd  Pd7  1  0.91666670  0.54166667  0.48089473  1
  Pd  Pd8  1  0.08333895  0.20832955  0.59315897  1
  Pd  Pd9  1  0.08333914  0.70833167  0.59315902  1
  Pd  Pd10  1  0.58333857  0.20833080  0.59315888  1
  Pd  Pd11  1  0.58333698  0.70833147  0.59315891  1
  Rh  Rh12  1  0.08333337  0.20833336  0.42533932  1
  Rh  Rh13  1  0.08333337  0.70833336  0.42533932  1
  Rh  Rh14  1  0.58333337  0.20833336  0.42533932  1
  Rh  Rh15  1  0.58333337  0.70833336  0.42533932  1
  Rh  Rh16  1  0.25000002  0.37500002  0.53645054  1
  Rh  Rh17  1  0.25000002  0.87500002  0.53645054  1
  Rh  Rh18  1  0.75000002  0.37500002  0.53645054  1
  Rh  Rh19  1  0.75000002  0.87500002  0.53645054  1
  Rh  Rh20  1  0.41664950  0.04167552  0.63605768  1
  Rh  Rh21  1  0.41664995  0.54167487  0.63605761  1
  Rh  Rh22  1  0.91664986  0.04167504  0.63605771  1
  Rh  Rh23  1  0.91664989  0.54167496  0.63605801  1
  Sc  Sc24  1  0.41666670  0.04166664  0.39756138  1
  Sc  Sc25  1  0.41666670  0.54166664  0.39756138  1
  Sc  Sc26  1  0.91666670  0.04166664  0.39756138  1
  Sc  Sc27  1  0.91666670  0.54166664  0.39756138  1
  Sc  Sc28  1  0.08333332  0.20833334  0.34200597  1
  Sc  Sc29  1  0.08333332  0.70833334  0.34200597  1
  Sc  Sc30  1  0.58333332  0.20833334  0.34200597  1
  Sc  Sc31  1  0.58333332  0.70833334  0.34200597  1
  Sc  Sc32  1  0.08333336  0.20833331  0.50867261  1
  Sc  Sc33  1  0.08333336  0.70833331  0.50867261  1
  Sc  Sc34  1  0.58333336  0.20833331  0.50867261  1
  Sc  Sc35  1  0.58333336  0.70833331  0.50867261  1
  Sc  Sc36  1  0.24999997  0.37500000  0.45311720  1
  Sc  Sc37  1  0.24999997  0.87500000  0.45311720  1
  Sc  Sc38  1  0.74999997  0.37500000  0.45311720  1
  Sc  Sc39  1  0.74999997  0.87500000  0.45311720  1
  Sc  Sc40  1  0.25000039  0.37499991  0.62103680  1
  Sc  Sc41  1  0.24999921  0.87500047  0.62103783  1
  Sc  Sc42  1  0.74999930  0.37499935  0.62103675  1
  Sc  Sc43  1  0.74999933  0.87500114  0.62103658  1
  Sc  Sc44  1  0.41666666  0.04166667  0.56422807  1
  Sc  Sc45  1  0.41666666  0.54166667  0.56422807  1
  Sc  Sc46  1  0.91666666  0.04166667  0.56422807  1
  Sc  Sc47  1  0.91666666  0.54166667  0.56422807  1
