# generated using pymatgen
data_Cd3Pd
_symmetry_space_group_name_H-M   'P 1'
_cell_length_a   10.78738179
_cell_length_b   10.78738174
_cell_length_c   33.02418247
_cell_angle_alpha   92.87667902
_cell_angle_beta   92.87667698
_cell_angle_gamma   112.67124302
_symmetry_Int_Tables_number   1
_chemical_formula_structural   Cd3Pd
_chemical_formula_sum   'Cd48 Pd16'
_cell_volume   3531.44433796
_cell_formula_units_Z   16
loop_
 _symmetry_equiv_pos_site_id
 _symmetry_equiv_pos_as_xyz
  1  'x, y, z'
loop_
 _atom_site_type_symbol
 _atom_site_label
 _atom_site_symmetry_multiplicity
 _atom_site_fract_x
 _atom_site_fract_y
 _atom_site_fract_z
 _atom_site_occupancy
  Cd  Cd0  1  0.30048124  0.27272727  0.34770367  1
  Cd  Cd1  1  0.30048124  0.77272727  0.34770367  1
  Cd  Cd2  1  0.80048124  0.27272727  0.34770367  1
  Cd  Cd3  1  0.80048124  0.77272727  0.34770367  1
  Cd  Cd4  1  0.35601062  0.02272727  0.33631891  1
  Cd  Cd5  1  0.35601062  0.52272727  0.33631891  1
  Cd  Cd6  1  0.85601062  0.02272727  0.33631891  1
  Cd  Cd7  1  0.85601062  0.52272727  0.33631891  1
  Cd  Cd8  1  0.04795718  0.28409091  0.38473383  1
  Cd  Cd9  1  0.04795718  0.78409091  0.38473383  1
  Cd  Cd10  1  0.54795718  0.28409091  0.38473383  1
  Cd  Cd11  1  0.54795718  0.78409091  0.38473383  1
  Cd  Cd12  1  0.35096249  0.04545454  0.42677267  1
  Cd  Cd13  1  0.35096249  0.54545454  0.42677267  1
  Cd  Cd14  1  0.85096249  0.04545454  0.42677267  1
  Cd  Cd15  1  0.85096249  0.54545454  0.42677267  1
  Cd  Cd16  1  0.29543312  0.29545455  0.43815743  1
  Cd  Cd17  1  0.29543312  0.79545455  0.43815743  1
  Cd  Cd18  1  0.79543312  0.29545455  0.43815743  1
  Cd  Cd19  1  0.79543312  0.79545455  0.43815743  1
  Cd  Cd20  1  0.09843843  0.05681818  0.48019627  1
  Cd  Cd21  1  0.09843843  0.55681818  0.48019627  1
  Cd  Cd22  1  0.59843843  0.05681818  0.48019627  1
  Cd  Cd23  1  0.59843843  0.55681818  0.48019627  1
  Cd  Cd24  1  0.29038500  0.31818182  0.52861119  1
  Cd  Cd25  1  0.29038500  0.81818182  0.52861119  1
  Cd  Cd26  1  0.79038500  0.31818182  0.52861119  1
  Cd  Cd27  1  0.79038500  0.81818182  0.52861119  1
  Cd  Cd28  1  0.34591437  0.06818182  0.51722643  1
  Cd  Cd29  1  0.34591437  0.56818182  0.51722643  1
  Cd  Cd30  1  0.84591437  0.06818182  0.51722643  1
  Cd  Cd31  1  0.84591437  0.56818182  0.51722643  1
  Cd  Cd32  1  0.03786093  0.32954545  0.56564135  1
  Cd  Cd33  1  0.03786093  0.82954545  0.56564135  1
  Cd  Cd34  1  0.53786093  0.32954545  0.56564135  1
  Cd  Cd35  1  0.53786093  0.82954545  0.56564135  1
  Cd  Cd36  1  0.35443255  0.01626140  0.61199289  1
  Cd  Cd37  1  0.35443251  0.51626141  0.61199289  1
  Cd  Cd38  1  0.85443254  0.01626136  0.61199289  1
  Cd  Cd39  1  0.85443249  0.51626132  0.61199288  1
  Cd  Cd40  1  0.38345682  0.28219492  0.66416132  1
  Cd  Cd41  1  0.38345692  0.78219491  0.66416135  1
  Cd  Cd42  1  0.88345684  0.28219491  0.66416132  1
  Cd  Cd43  1  0.88345695  0.78219490  0.66416132  1
  Cd  Cd44  1  0.12528596  0.03203376  0.65843864  1
  Cd  Cd45  1  0.12528594  0.53203366  0.65843864  1
  Cd  Cd46  1  0.62528597  0.03203361  0.65843864  1
  Cd  Cd47  1  0.62528591  0.53203349  0.65843864  1
  Pd  Pd48  1  0.10348656  0.03409091  0.38974251  1
  Pd  Pd49  1  0.10348656  0.53409091  0.38974251  1
  Pd  Pd50  1  0.60348656  0.03409091  0.38974251  1
  Pd  Pd51  1  0.60348656  0.53409091  0.38974251  1
  Pd  Pd52  1  0.04290906  0.30681818  0.47518759  1
  Pd  Pd53  1  0.04290906  0.80681818  0.47518759  1
  Pd  Pd54  1  0.54290906  0.30681818  0.47518759  1
  Pd  Pd55  1  0.54290906  0.80681818  0.47518759  1
  Pd  Pd56  1  0.09339031  0.07954546  0.57065002  1
  Pd  Pd57  1  0.09339031  0.57954546  0.57065002  1
  Pd  Pd58  1  0.59339031  0.07954546  0.57065002  1
  Pd  Pd59  1  0.59339031  0.57954546  0.57065002  1
  Pd  Pd60  1  0.13001444  0.28015492  0.63951861  1
  Pd  Pd61  1  0.13001450  0.78015499  0.63951860  1
  Pd  Pd62  1  0.63001442  0.28015503  0.63951860  1
  Pd  Pd63  1  0.63001443  0.78015506  0.63951858  1
