# generated using pymatgen
data_CaMgPd
_symmetry_space_group_name_H-M   'P 1'
_cell_length_a   8.67638020
_cell_length_b   9.70519113
_cell_length_c   39.56864816
_cell_angle_alpha   116.93675306
_cell_angle_beta   120.44575110
_cell_angle_gamma   76.72948225
_symmetry_Int_Tables_number   1
_chemical_formula_structural   CaMgPd
_chemical_formula_sum   'Ca12 Mg12 Pd12'
_cell_volume   2560.83172416
_cell_formula_units_Z   12
loop_
 _symmetry_equiv_pos_site_id
 _symmetry_equiv_pos_as_xyz
  1  'x, y, z'
loop_
 _atom_site_type_symbol
 _atom_site_label
 _atom_site_symmetry_multiplicity
 _atom_site_fract_x
 _atom_site_fract_y
 _atom_site_fract_z
 _atom_site_occupancy
  Ca  Ca0  1  0.02975503  0.67570715  0.43949582  1
  Ca  Ca1  1  0.52975484  0.82429258  0.40044972  1
  Ca  Ca2  1  0.97024586  0.32429255  0.33828203  1
  Ca  Ca3  1  0.47024466  0.17570770  0.37732803  1
  Ca  Ca4  1  0.02975503  0.67570715  0.55060693  1
  Ca  Ca5  1  0.52975484  0.82429258  0.51156083  1
  Ca  Ca6  1  0.97024586  0.32429255  0.44939314  1
  Ca  Ca7  1  0.47024466  0.17570770  0.48843914  1
  Ca  Ca8  1  0.03629529  0.66519643  0.65744516  1
  Ca  Ca9  1  0.51138304  0.82309398  0.61894564  1
  Ca  Ca10  1  0.97024586  0.32429255  0.56050425  1
  Ca  Ca11  1  0.46385651  0.18275356  0.59882147  1
  Mg  Mg12  1  0.14024717  0.06193747  0.38357607  1
  Mg  Mg13  1  0.64024705  0.43806252  0.36981217  1
  Mg  Mg14  1  0.85975282  0.93806265  0.39420172  1
  Mg  Mg15  1  0.35975277  0.56193729  0.40796556  1
  Mg  Mg16  1  0.14024717  0.06193747  0.49468718  1
  Mg  Mg17  1  0.64024705  0.43806252  0.48092328  1
  Mg  Mg18  1  0.85975282  0.93806265  0.50531283  1
  Mg  Mg19  1  0.35975277  0.56193729  0.51907667  1
  Mg  Mg20  1  0.13909882  0.07137218  0.60946277  1
  Mg  Mg21  1  0.64024705  0.43806252  0.59203440  1
  Mg  Mg22  1  0.86447698  0.93702648  0.61503821  1
  Mg  Mg23  1  0.35834945  0.56004668  0.62991512  1
  Pd  Pd24  1  0.27138533  0.37456747  0.43288364  1
  Pd  Pd25  1  0.77138531  0.12543262  0.34964641  1
  Pd  Pd26  1  0.72861451  0.62543248  0.34489411  1
  Pd  Pd27  1  0.22861465  0.87456753  0.42813138  1
  Pd  Pd28  1  0.27138533  0.37456747  0.54399475  1
  Pd  Pd29  1  0.77138531  0.12543262  0.46075752  1
  Pd  Pd30  1  0.72861451  0.62543248  0.45600522  1
  Pd  Pd31  1  0.22861465  0.87456753  0.53924249  1
  Pd  Pd32  1  0.25169097  0.37310687  0.64655410  1
  Pd  Pd33  1  0.77138531  0.12543262  0.57186863  1
  Pd  Pd34  1  0.72861451  0.62543248  0.56711633  1
  Pd  Pd35  1  0.21735934  0.84984795  0.64328924  1
