# generated using pymatgen
data_Sc2CuPd
_symmetry_space_group_name_H-M   'P 1'
_cell_length_a   9.40703450
_cell_length_b   13.30355336
_cell_length_c   37.62812237
_cell_angle_alpha   89.99994091
_cell_angle_beta   90.00004020
_cell_angle_gamma   89.99994302
_symmetry_Int_Tables_number   1
_chemical_formula_structural   Sc2CuPd
_chemical_formula_sum   'Sc48 Cu24 Pd24'
_cell_volume   4709.04608200
_cell_formula_units_Z   24
loop_
 _symmetry_equiv_pos_site_id
 _symmetry_equiv_pos_as_xyz
  1  'x, y, z'
loop_
 _atom_site_type_symbol
 _atom_site_label
 _atom_site_symmetry_multiplicity
 _atom_site_fract_x
 _atom_site_fract_y
 _atom_site_fract_z
 _atom_site_occupancy
  Cu  Cu0  1  0.37499998  0.49999999  0.34374999  1
  Cu  Cu1  1  0.37499998  0.99999999  0.34374999  1
  Cu  Cu2  1  0.87499998  0.49999999  0.34374999  1
  Cu  Cu3  1  0.87499998  0.99999999  0.34374999  1
  Cu  Cu4  1  0.12500003  0.24999998  0.40625000  1
  Cu  Cu5  1  0.12500003  0.74999998  0.40625000  1
  Cu  Cu6  1  0.62500003  0.24999998  0.40625000  1
  Cu  Cu7  1  0.62500003  0.74999998  0.40625000  1
  Cu  Cu8  1  0.37499998  0.49999999  0.46874999  1
  Cu  Cu9  1  0.37499998  0.99999999  0.46874999  1
  Cu  Cu10  1  0.87499998  0.49999999  0.46874999  1
  Cu  Cu11  1  0.87499998  0.99999999  0.46874999  1
  Cu  Cu12  1  0.12500003  0.24999998  0.53125000  1
  Cu  Cu13  1  0.12500003  0.74999998  0.53125000  1
  Cu  Cu14  1  0.62500003  0.24999998  0.53125000  1
  Cu  Cu15  1  0.62500003  0.74999998  0.53125000  1
  Cu  Cu16  1  0.37499998  0.49999999  0.59374999  1
  Cu  Cu17  1  0.37499998  0.99999999  0.59374999  1
  Cu  Cu18  1  0.87499998  0.49999999  0.59374999  1
  Cu  Cu19  1  0.87499998  0.99999999  0.59374999  1
  Cu  Cu20  1  0.12500009  0.25000008  0.65194583  1
  Cu  Cu21  1  0.12500014  0.74999970  0.65194537  1
  Cu  Cu22  1  0.62500002  0.25000009  0.65194580  1
  Cu  Cu23  1  0.62499998  0.74999970  0.65194534  1
  Pd  Pd24  1  0.12500002  0.00000002  0.40625000  1
  Pd  Pd25  1  0.12500002  0.50000002  0.40625000  1
  Pd  Pd26  1  0.62500002  0.00000002  0.40625000  1
  Pd  Pd27  1  0.62500002  0.50000002  0.40625000  1
  Pd  Pd28  1  0.37500002  0.24999999  0.34375000  1
  Pd  Pd29  1  0.37500002  0.74999999  0.34375000  1
  Pd  Pd30  1  0.87500002  0.24999999  0.34375000  1
  Pd  Pd31  1  0.87500002  0.74999999  0.34375000  1
  Pd  Pd32  1  0.12500002  0.00000002  0.53125000  1
  Pd  Pd33  1  0.12500002  0.50000002  0.53125000  1
  Pd  Pd34  1  0.62500002  0.00000002  0.53125000  1
  Pd  Pd35  1  0.62500002  0.50000002  0.53125000  1
  Pd  Pd36  1  0.37500002  0.24999999  0.46875000  1
  Pd  Pd37  1  0.37500002  0.74999999  0.46875000  1
  Pd  Pd38  1  0.87500002  0.24999999  0.46875000  1
  Pd  Pd39  1  0.87500002  0.74999999  0.46875000  1
  Pd  Pd40  1  0.12500009  0.00000037  0.65017450  1
  Pd  Pd41  1  0.12499997  0.49999945  0.65017455  1
  Pd  Pd42  1  0.62500006  0.00000038  0.65017448  1
  Pd  Pd43  1  0.62500000  0.49999944  0.65017455  1
  Pd  Pd44  1  0.37500002  0.24999999  0.59375000  1
  Pd  Pd45  1  0.37500002  0.74999999  0.59375000  1
  Pd  Pd46  1  0.87500002  0.24999999  0.59375000  1
  Pd  Pd47  1  0.87500002  0.74999999  0.59375000  1
  Sc  Sc48  1  0.37499997  0.12499997  0.40625001  1
  Sc  Sc49  1  0.37499997  0.62499997  0.40625001  1
  Sc  Sc50  1  0.87499997  0.12499997  0.40625001  1
  Sc  Sc51  1  0.87499997  0.62499997  0.40625001  1
  Sc  Sc52  1  0.12499999  0.12499996  0.34374999  1
  Sc  Sc53  1  0.12499999  0.62499996  0.34374999  1
  Sc  Sc54  1  0.62499999  0.12499996  0.34374999  1
  Sc  Sc55  1  0.62499999  0.62499996  0.34374999  1
  Sc  Sc56  1  0.12500005  0.37500002  0.34375001  1
  Sc  Sc57  1  0.12500005  0.87500002  0.34375001  1
  Sc  Sc58  1  0.62500005  0.37500002  0.34375001  1
  Sc  Sc59  1  0.62500005  0.87500002  0.34375001  1
  Sc  Sc60  1  0.37499995  0.37500007  0.40624999  1
  Sc  Sc61  1  0.37499995  0.87500007  0.40624999  1
  Sc  Sc62  1  0.87499995  0.37500007  0.40624999  1
  Sc  Sc63  1  0.87499995  0.87500007  0.40624999  1
  Sc  Sc64  1  0.37499997  0.12499997  0.53125001  1
  Sc  Sc65  1  0.37499997  0.62499997  0.53125001  1
  Sc  Sc66  1  0.87499997  0.12499997  0.53125001  1
  Sc  Sc67  1  0.87499997  0.62499997  0.53125001  1
  Sc  Sc68  1  0.12499999  0.12499996  0.46874999  1
  Sc  Sc69  1  0.12499999  0.62499996  0.46874999  1
  Sc  Sc70  1  0.62499999  0.12499996  0.46874999  1
  Sc  Sc71  1  0.62499999  0.62499996  0.46874999  1
  Sc  Sc72  1  0.12500005  0.37500002  0.46875001  1
  Sc  Sc73  1  0.12500005  0.87500002  0.46875001  1
  Sc  Sc74  1  0.62500005  0.37500002  0.46875001  1
  Sc  Sc75  1  0.62500005  0.87500002  0.46875001  1
  Sc  Sc76  1  0.37499995  0.37500007  0.53124999  1
  Sc  Sc77  1  0.37499995  0.87500007  0.53124999  1
  Sc  Sc78  1  0.87499995  0.37500007  0.53124999  1
  Sc  Sc79  1  0.87499995  0.87500007  0.53124999  1
  Sc  Sc80  1  0.37500019  0.12464825  0.65572138  1
  Sc  Sc81  1  0.37500009  0.62464792  0.65572089  1
  Sc  Sc82  1  0.87500012  0.12464822  0.65572136  1
  Sc  Sc83  1  0.87500006  0.62464806  0.65572092  1
  Sc  Sc84  1  0.12499999  0.12499996  0.59374999  1
  Sc  Sc85  1  0.12499999  0.62499996  0.59374999  1
  Sc  Sc86  1  0.62499999  0.12499996  0.59374999  1
  Sc  Sc87  1  0.62499999  0.62499996  0.59374999  1
  Sc  Sc88  1  0.12500005  0.37500002  0.59375001  1
  Sc  Sc89  1  0.12500005  0.87500002  0.59375001  1
  Sc  Sc90  1  0.62500005  0.37500002  0.59375001  1
  Sc  Sc91  1  0.62500005  0.87500002  0.59375001  1
  Sc  Sc92  1  0.37500004  0.37535480  0.65572115  1
  Sc  Sc93  1  0.37500027  0.87534857  0.65572118  1
  Sc  Sc94  1  0.87500003  0.37535476  0.65572107  1
  Sc  Sc95  1  0.87500001  0.87534849  0.65572117  1
