# generated using pymatgen
data_CaCd2Pd
_symmetry_space_group_name_H-M   'P 1'
_cell_length_a   8.30340275
_cell_length_b   9.94641007
_cell_length_c   45.53713957
_cell_angle_alpha   124.90908123
_cell_angle_beta   89.99999862
_cell_angle_gamma   90.00000188
_symmetry_Int_Tables_number   1
_chemical_formula_structural   CaCd2Pd
_chemical_formula_sum   'Ca12 Cd24 Pd12'
_cell_volume   3084.14270987
_cell_formula_units_Z   12
loop_
 _symmetry_equiv_pos_site_id
 _symmetry_equiv_pos_as_xyz
  1  'x, y, z'
loop_
 _atom_site_type_symbol
 _atom_site_label
 _atom_site_symmetry_multiplicity
 _atom_site_fract_x
 _atom_site_fract_y
 _atom_site_fract_z
 _atom_site_occupancy
  Ca  Ca0  1  0.74999998  0.53355884  0.55741105  1
  Ca  Ca1  1  0.74999995  0.03355876  0.58272452  1
  Ca  Ca2  1  0.24999998  0.46644107  0.57433480  1
  Ca  Ca3  1  0.24999998  0.95095847  0.66959498  1
  Ca  Ca4  1  0.74999998  0.53355884  0.43241105  1
  Ca  Ca5  1  0.74999995  0.03355876  0.45772452  1
  Ca  Ca6  1  0.24999998  0.46644107  0.44933480  1
  Ca  Ca7  1  0.25000000  0.96644130  0.54902135  1
  Ca  Ca8  1  0.74999998  0.53355884  0.30741105  1
  Ca  Ca9  1  0.74999995  0.03355876  0.33272452  1
  Ca  Ca10  1  0.24999998  0.46644107  0.32433480  1
  Ca  Ca11  1  0.25000000  0.96644130  0.42402135  1
  Cd  Cd12  1  0.93739211  0.67190800  0.63896318  1
  Cd  Cd13  1  0.56210729  0.17315000  0.66184241  1
  Cd  Cd14  1  0.44453608  0.32786595  0.61874935  1
  Cd  Cd15  1  0.05546371  0.82786646  0.59496310  1
  Cd  Cd16  1  0.05546389  0.32786595  0.61874935  1
  Cd  Cd17  1  0.44453630  0.82786647  0.59496310  1
  Cd  Cd18  1  0.56260787  0.67190802  0.63896318  1
  Cd  Cd19  1  0.93789267  0.17314999  0.66184240  1
  Cd  Cd20  1  0.94453615  0.67213401  0.51299651  1
  Cd  Cd21  1  0.55546352  0.17213359  0.53678276  1
  Cd  Cd22  1  0.44453608  0.32786595  0.49374935  1
  Cd  Cd23  1  0.05546371  0.82786646  0.46996310  1
  Cd  Cd24  1  0.05546389  0.32786595  0.49374935  1
  Cd  Cd25  1  0.44453630  0.82786647  0.46996310  1
  Cd  Cd26  1  0.55546379  0.67213400  0.51299651  1
  Cd  Cd27  1  0.94453638  0.17213358  0.53678276  1
  Cd  Cd28  1  0.94453615  0.67213401  0.38799651  1
  Cd  Cd29  1  0.55546352  0.17213359  0.41178276  1
  Cd  Cd30  1  0.44453608  0.32786595  0.36874935  1
  Cd  Cd31  1  0.05546371  0.82786646  0.34496310  1
  Cd  Cd32  1  0.05546389  0.32786595  0.36874935  1
  Cd  Cd33  1  0.44453630  0.82786647  0.34496310  1
  Cd  Cd34  1  0.55546379  0.67213400  0.38799651  1
  Cd  Cd35  1  0.94453638  0.17213358  0.41178276  1
  Pd  Pd36  1  0.74999999  0.87901243  0.62783520  1
  Pd  Pd37  1  0.74999997  0.37805646  0.59844524  1
  Pd  Pd38  1  0.24999999  0.12626086  0.63199659  1
  Pd  Pd39  1  0.24999995  0.61601263  0.65077510  1
  Pd  Pd40  1  0.74999999  0.87805648  0.50281471  1
  Pd  Pd41  1  0.74999997  0.37805646  0.47344524  1
  Pd  Pd42  1  0.24999996  0.12194351  0.50393118  1
  Pd  Pd43  1  0.24999998  0.62194356  0.53330063  1
  Pd  Pd44  1  0.74999999  0.87805648  0.37781471  1
  Pd  Pd45  1  0.74999997  0.37805646  0.34844524  1
  Pd  Pd46  1  0.24999996  0.12194351  0.37893118  1
  Pd  Pd47  1  0.24999998  0.62194356  0.40830063  1
