# generated using pymatgen
data_Ca2AgPd
_symmetry_space_group_name_H-M   'P 1'
_cell_length_a   10.43539214
_cell_length_b   10.43538126
_cell_length_c   36.89467059
_cell_angle_alpha   89.99997540
_cell_angle_beta   89.99990123
_cell_angle_gamma   89.99996826
_symmetry_Int_Tables_number   1
_chemical_formula_structural   Ca2AgPd
_chemical_formula_sum   'Ca32 Ag16 Pd16'
_cell_volume   4017.72984851
_cell_formula_units_Z   16
loop_
 _symmetry_equiv_pos_site_id
 _symmetry_equiv_pos_as_xyz
  1  'x, y, z'
loop_
 _atom_site_type_symbol
 _atom_site_label
 _atom_site_symmetry_multiplicity
 _atom_site_fract_x
 _atom_site_fract_y
 _atom_site_fract_z
 _atom_site_occupancy
  Ag  Ag0  1  0.00000000  0.00000002  0.37500000  1
  Ag  Ag1  1  0.00000000  0.50000002  0.37500000  1
  Ag  Ag2  1  0.50000000  0.00000002  0.37500000  1
  Ag  Ag3  1  0.50000000  0.50000002  0.37500000  1
  Ag  Ag4  1  0.25000000  0.24999999  0.47500000  1
  Ag  Ag5  1  0.25000000  0.74999999  0.47500000  1
  Ag  Ag6  1  0.75000000  0.24999999  0.47500000  1
  Ag  Ag7  1  0.75000000  0.74999999  0.47500000  1
  Ag  Ag8  1  0.00000000  0.00000002  0.57500000  1
  Ag  Ag9  1  0.00000000  0.50000002  0.57500000  1
  Ag  Ag10  1  0.50000000  0.00000002  0.57500000  1
  Ag  Ag11  1  0.50000000  0.50000002  0.57500000  1
  Ag  Ag12  1  0.24999979  0.24999992  0.67530082  1
  Ag  Ag13  1  0.24999978  0.74999994  0.67530082  1
  Ag  Ag14  1  0.74999975  0.24999993  0.67530082  1
  Ag  Ag15  1  0.74999976  0.74999993  0.67530082  1
  Ca  Ca16  1  0.25000000  0.00000008  0.32500001  1
  Ca  Ca17  1  0.25000000  0.50000008  0.32500001  1
  Ca  Ca18  1  0.75000000  0.00000008  0.32500001  1
  Ca  Ca19  1  0.75000000  0.50000008  0.32500001  1
  Ca  Ca20  1  0.49999996  0.25000006  0.32499998  1
  Ca  Ca21  1  0.49999996  0.75000006  0.32499998  1
  Ca  Ca22  1  0.99999996  0.25000006  0.32499998  1
  Ca  Ca23  1  0.99999996  0.75000006  0.32499998  1
  Ca  Ca24  1  0.00000005  0.24999990  0.42500005  1
  Ca  Ca25  1  0.00000005  0.74999990  0.42500005  1
  Ca  Ca26  1  0.50000005  0.24999990  0.42500005  1
  Ca  Ca27  1  0.50000005  0.74999990  0.42500005  1
  Ca  Ca28  1  0.25000000  0.49999999  0.42499998  1
  Ca  Ca29  1  0.25000000  0.99999999  0.42499998  1
  Ca  Ca30  1  0.75000000  0.49999999  0.42499998  1
  Ca  Ca31  1  0.75000000  0.99999999  0.42499998  1
  Ca  Ca32  1  0.25000000  0.00000008  0.52500001  1
  Ca  Ca33  1  0.25000000  0.50000008  0.52500001  1
  Ca  Ca34  1  0.75000000  0.00000008  0.52500001  1
  Ca  Ca35  1  0.75000000  0.50000008  0.52500001  1
  Ca  Ca36  1  0.49999996  0.25000006  0.52499998  1
  Ca  Ca37  1  0.49999996  0.75000006  0.52499998  1
  Ca  Ca38  1  0.99999996  0.25000006  0.52499998  1
  Ca  Ca39  1  0.99999996  0.75000006  0.52499998  1
  Ca  Ca40  1  0.99999944  0.25000004  0.62664185  1
  Ca  Ca41  1  0.99999941  0.74999993  0.62664186  1
  Ca  Ca42  1  0.49999942  0.25000075  0.62664186  1
  Ca  Ca43  1  0.49999944  0.74999920  0.62664186  1
  Ca  Ca44  1  0.25000120  0.49999987  0.62664183  1
  Ca  Ca45  1  0.25000044  0.99999991  0.62664180  1
  Ca  Ca46  1  0.75000001  0.49999990  0.62664183  1
  Ca  Ca47  1  0.75000069  0.99999989  0.62664180  1
  Pd  Pd48  1  0.00000003  0.49999997  0.47499999  1
  Pd  Pd49  1  0.00000003  0.99999997  0.47499999  1
  Pd  Pd50  1  0.50000003  0.49999997  0.47499999  1
  Pd  Pd51  1  0.50000003  0.99999997  0.47499999  1
  Pd  Pd52  1  0.24999998  0.24999999  0.37499999  1
  Pd  Pd53  1  0.24999998  0.74999999  0.37499999  1
  Pd  Pd54  1  0.74999998  0.24999999  0.37499999  1
  Pd  Pd55  1  0.74999998  0.74999999  0.37499999  1
  Pd  Pd56  1  0.99999917  0.49999990  0.66049910  1
  Pd  Pd57  1  0.99999920  0.99999989  0.66049911  1
  Pd  Pd58  1  0.49999918  0.49999990  0.66049896  1
  Pd  Pd59  1  0.49999920  0.99999990  0.66049916  1
  Pd  Pd60  1  0.24999998  0.24999999  0.57499999  1
  Pd  Pd61  1  0.24999998  0.74999999  0.57499999  1
  Pd  Pd62  1  0.74999998  0.24999999  0.57499999  1
  Pd  Pd63  1  0.74999998  0.74999999  0.57499999  1
