# generated using pymatgen
data_Zr4CuNi
_symmetry_space_group_name_H-M   'P 1'
_cell_length_a   9.39850037
_cell_length_b   8.46330393
_cell_length_c   47.16344793
_cell_angle_alpha   51.74307512
_cell_angle_beta   90.00000177
_cell_angle_gamma   56.27205629
_symmetry_Int_Tables_number   1
_chemical_formula_structural   Zr4CuNi
_chemical_formula_sum   'Zr24 Cu6 Ni6'
_cell_volume   2083.01564829
_cell_formula_units_Z   6
loop_
 _symmetry_equiv_pos_site_id
 _symmetry_equiv_pos_as_xyz
  1  'x, y, z'
loop_
 _atom_site_type_symbol
 _atom_site_label
 _atom_site_symmetry_multiplicity
 _atom_site_fract_x
 _atom_site_fract_y
 _atom_site_fract_z
 _atom_site_occupancy
  Zr  Zr0  1  0.16068951  0.17861995  0.38756077  1
  Zr  Zr1  1  0.83931023  0.82138002  0.42725410  1
  Zr  Zr2  1  0.16068950  0.50000076  0.40740729  1
  Zr  Zr3  1  0.83931027  0.49999927  0.40740746  1
  Zr  Zr4  1  0.66068991  0.17862117  0.33200503  1
  Zr  Zr5  1  0.33931031  0.82137889  0.37169862  1
  Zr  Zr6  1  0.66068990  0.49999930  0.35185196  1
  Zr  Zr7  1  0.33931031  0.50000072  0.35185180  1
  Zr  Zr8  1  0.16068951  0.17861995  0.49867189  1
  Zr  Zr9  1  0.83931023  0.82138002  0.53836521  1
  Zr  Zr10  1  0.16068950  0.50000076  0.51851841  1
  Zr  Zr11  1  0.83931027  0.49999927  0.51851857  1
  Zr  Zr12  1  0.66068991  0.17862117  0.44311614  1
  Zr  Zr13  1  0.33931031  0.82137889  0.48280973  1
  Zr  Zr14  1  0.66068990  0.49999930  0.46296307  1
  Zr  Zr15  1  0.33931031  0.50000072  0.46296291  1
  Zr  Zr16  1  0.15381917  0.19275385  0.60854851  1
  Zr  Zr17  1  0.80883450  0.88057839  0.64271164  1
  Zr  Zr18  1  0.12914197  0.54512147  0.62244308  1
  Zr  Zr19  1  0.83017266  0.53125380  0.62627899  1
  Zr  Zr20  1  0.66068991  0.17862117  0.55422725  1
  Zr  Zr21  1  0.34126950  0.82228402  0.59317691  1
  Zr  Zr22  1  0.66068990  0.49999930  0.57407418  1
  Zr  Zr23  1  0.33931031  0.50000072  0.57407402  1
  Cu  Cu24  1  0.99999992  0.00000016  0.37962961  1
  Cu  Cu25  1  0.50000012  0.99999977  0.43518521  1
  Cu  Cu26  1  0.99999992  0.00000016  0.49074072  1
  Cu  Cu27  1  0.50000012  0.99999977  0.54629632  1
  Cu  Cu28  1  0.01312208  0.98692863  0.60424426  1
  Cu  Cu29  1  0.48331722  0.01781106  0.65569956  1
  Ni  Ni30  1  0.99999997  0.00000007  0.43518518  1
  Ni  Ni31  1  0.50000004  0.99999993  0.37962964  1
  Ni  Ni32  1  0.99999997  0.00000007  0.54629629  1
  Ni  Ni33  1  0.50000004  0.99999993  0.49074075  1
  Ni  Ni34  1  0.97075781  0.05912403  0.64875880  1
  Ni  Ni35  1  0.50519527  0.98232295  0.60448854  1
