# generated using pymatgen
data_YCuSn
_symmetry_space_group_name_H-M   'P 1'
_cell_length_a   9.19044648
_cell_length_b   9.19044724
_cell_length_c   36.81545950
_cell_angle_alpha   89.99998198
_cell_angle_beta   89.99997668
_cell_angle_gamma   119.99997034
_symmetry_Int_Tables_number   1
_chemical_formula_structural   YCuSn
_chemical_formula_sum   'Y16 Cu16 Sn16'
_cell_volume   2692.98691572
_cell_formula_units_Z   16
loop_
 _symmetry_equiv_pos_site_id
 _symmetry_equiv_pos_as_xyz
  1  'x, y, z'
loop_
 _atom_site_type_symbol
 _atom_site_label
 _atom_site_symmetry_multiplicity
 _atom_site_fract_x
 _atom_site_fract_y
 _atom_site_fract_z
 _atom_site_occupancy
  Y  Y0  1  0.00000004  0.49999997  0.31338512  1
  Y  Y1  1  0.00000004  0.99999997  0.31338512  1
  Y  Y2  1  0.50000004  0.49999997  0.31338512  1
  Y  Y3  1  0.50000004  0.99999997  0.31338512  1
  Y  Y4  1  0.49999998  0.00000006  0.41338514  1
  Y  Y5  1  0.49999998  0.50000006  0.41338514  1
  Y  Y6  1  0.99999998  0.00000006  0.41338514  1
  Y  Y7  1  0.99999998  0.50000006  0.41338514  1
  Y  Y8  1  0.00000004  0.49999997  0.51338512  1
  Y  Y9  1  0.00000004  0.99999997  0.51338512  1
  Y  Y10  1  0.50000004  0.49999997  0.51338512  1
  Y  Y11  1  0.50000004  0.99999997  0.51338512  1
  Y  Y12  1  0.49999998  0.00000006  0.61338514  1
  Y  Y13  1  0.49999998  0.50000006  0.61338514  1
  Y  Y14  1  0.99999998  0.00000006  0.61338514  1
  Y  Y15  1  0.99999998  0.50000006  0.61338514  1
  Cu  Cu16  1  0.16666665  0.33333335  0.37719905  1
  Cu  Cu17  1  0.16666665  0.83333335  0.37719905  1
  Cu  Cu18  1  0.66666665  0.33333335  0.37719905  1
  Cu  Cu19  1  0.66666665  0.83333335  0.37719905  1
  Cu  Cu20  1  0.33333334  0.16666672  0.47719912  1
  Cu  Cu21  1  0.33333334  0.66666672  0.47719912  1
  Cu  Cu22  1  0.83333334  0.16666672  0.47719912  1
  Cu  Cu23  1  0.83333334  0.66666672  0.47719912  1
  Cu  Cu24  1  0.16666665  0.33333335  0.57719905  1
  Cu  Cu25  1  0.16666665  0.83333335  0.57719905  1
  Cu  Cu26  1  0.66666665  0.33333335  0.57719905  1
  Cu  Cu27  1  0.66666665  0.83333335  0.57719905  1
  Cu  Cu28  1  0.33337580  0.16673924  0.65856632  1
  Cu  Cu29  1  0.33337479  0.66663424  0.65856813  1
  Cu  Cu30  1  0.83332022  0.16666451  0.65857536  1
  Cu  Cu31  1  0.83323025  0.66662590  0.65857334  1
  Sn  Sn32  1  0.33333344  0.16666661  0.35941592  1
  Sn  Sn33  1  0.33333344  0.66666661  0.35941592  1
  Sn  Sn34  1  0.83333344  0.16666661  0.35941592  1
  Sn  Sn35  1  0.83333344  0.66666661  0.35941592  1
  Sn  Sn36  1  0.16666655  0.33333329  0.45941566  1
  Sn  Sn37  1  0.16666655  0.83333329  0.45941566  1
  Sn  Sn38  1  0.66666655  0.33333329  0.45941566  1
  Sn  Sn39  1  0.66666655  0.83333329  0.45941566  1
  Sn  Sn40  1  0.33333344  0.16666661  0.55941592  1
  Sn  Sn41  1  0.33333344  0.66666661  0.55941592  1
  Sn  Sn42  1  0.83333344  0.16666661  0.55941592  1
  Sn  Sn43  1  0.83333344  0.66666661  0.55941592  1
  Sn  Sn44  1  0.16685683  0.33342954  0.65940078  1
  Sn  Sn45  1  0.16670634  0.83335656  0.65940325  1
  Sn  Sn46  1  0.66656663  0.33340785  0.65940112  1
  Sn  Sn47  1  0.66657555  0.83314298  0.65940148  1
