# generated using pymatgen
data_Ca2PdPt
_symmetry_space_group_name_H-M   'P 1'
_cell_length_a   10.07739590
_cell_length_b   10.07739586
_cell_length_c   33.04095024
_cell_angle_alpha   85.62699251
_cell_angle_beta   85.62699241
_cell_angle_gamma   59.99999884
_symmetry_Int_Tables_number   1
_chemical_formula_structural   Ca2PdPt
_chemical_formula_sum   'Ca24 Pd12 Pt12'
_cell_volume   2894.60910502
_cell_formula_units_Z   12
loop_
 _symmetry_equiv_pos_site_id
 _symmetry_equiv_pos_as_xyz
  1  'x, y, z'
loop_
 _atom_site_type_symbol
 _atom_site_label
 _atom_site_symmetry_multiplicity
 _atom_site_fract_x
 _atom_site_fract_y
 _atom_site_fract_z
 _atom_site_occupancy
  Ca  Ca0  1  0.07031251  0.19531250  0.32812500  1
  Ca  Ca1  1  0.07031251  0.69531250  0.32812500  1
  Ca  Ca2  1  0.57031251  0.19531250  0.32812500  1
  Ca  Ca3  1  0.57031251  0.69531250  0.32812500  1
  Ca  Ca4  1  0.22656249  0.35156250  0.39062500  1
  Ca  Ca5  1  0.22656249  0.85156250  0.39062500  1
  Ca  Ca6  1  0.72656249  0.35156250  0.39062500  1
  Ca  Ca7  1  0.72656249  0.85156250  0.39062500  1
  Ca  Ca8  1  0.38281251  0.00781250  0.45312500  1
  Ca  Ca9  1  0.38281251  0.50781250  0.45312500  1
  Ca  Ca10  1  0.88281251  0.00781250  0.45312500  1
  Ca  Ca11  1  0.88281251  0.50781250  0.45312500  1
  Ca  Ca12  1  0.03906249  0.16406250  0.51562500  1
  Ca  Ca13  1  0.03906249  0.66406250  0.51562500  1
  Ca  Ca14  1  0.53906249  0.16406250  0.51562500  1
  Ca  Ca15  1  0.53906249  0.66406250  0.51562500  1
  Ca  Ca16  1  0.19531251  0.32031250  0.57812500  1
  Ca  Ca17  1  0.19531251  0.82031250  0.57812500  1
  Ca  Ca18  1  0.69531251  0.32031250  0.57812500  1
  Ca  Ca19  1  0.69531251  0.82031250  0.57812500  1
  Ca  Ca20  1  0.35034604  0.47533918  0.64793910  1
  Ca  Ca21  1  0.35034605  0.97533919  0.64793909  1
  Ca  Ca22  1  0.85034602  0.47533921  0.64793910  1
  Ca  Ca23  1  0.85034602  0.97533918  0.64793909  1
  Pd  Pd24  1  0.39843750  0.02343750  0.35937500  1
  Pd  Pd25  1  0.39843750  0.52343750  0.35937500  1
  Pd  Pd26  1  0.89843750  0.02343750  0.35937500  1
  Pd  Pd27  1  0.89843750  0.52343750  0.35937500  1
  Pd  Pd28  1  0.21093750  0.33593750  0.48437500  1
  Pd  Pd29  1  0.21093750  0.83593750  0.48437500  1
  Pd  Pd30  1  0.71093750  0.33593750  0.48437500  1
  Pd  Pd31  1  0.71093750  0.83593750  0.48437500  1
  Pd  Pd32  1  0.02343750  0.14843750  0.60937500  1
  Pd  Pd33  1  0.02343750  0.64843750  0.60937500  1
  Pd  Pd34  1  0.52343750  0.14843750  0.60937500  1
  Pd  Pd35  1  0.52343750  0.64843750  0.60937500  1
  Pt  Pt36  1  0.05468750  0.17968750  0.42187500  1
  Pt  Pt37  1  0.05468750  0.67968750  0.42187500  1
  Pt  Pt38  1  0.55468750  0.17968750  0.42187500  1
  Pt  Pt39  1  0.55468750  0.67968750  0.42187500  1
  Pt  Pt40  1  0.36718750  0.49218750  0.54687500  1
  Pt  Pt41  1  0.36718750  0.99218750  0.54687500  1
  Pt  Pt42  1  0.86718750  0.49218750  0.54687500  1
  Pt  Pt43  1  0.86718750  0.99218750  0.54687500  1
  Pt  Pt44  1  0.18150343  0.30651125  0.66095810  1
  Pt  Pt45  1  0.18150342  0.80651126  0.66095811  1
  Pt  Pt46  1  0.68150342  0.30651125  0.66095810  1
  Pt  Pt47  1  0.68150342  0.80651126  0.66095810  1
