# generated using pymatgen
data_Y3Pd
_symmetry_space_group_name_H-M   'P 1'
_cell_length_a   14.27380175
_cell_length_b   9.88984301
_cell_length_c   39.30816588
_cell_angle_alpha   89.99999253
_cell_angle_beta   89.99998286
_cell_angle_gamma   90.00010214
_symmetry_Int_Tables_number   1
_chemical_formula_structural   Y3Pd
_chemical_formula_sum   'Y48 Pd16'
_cell_volume   5548.96311944
_cell_formula_units_Z   16
loop_
 _symmetry_equiv_pos_site_id
 _symmetry_equiv_pos_as_xyz
  1  'x, y, z'
loop_
 _atom_site_type_symbol
 _atom_site_label
 _atom_site_symmetry_multiplicity
 _atom_site_fract_x
 _atom_site_fract_y
 _atom_site_fract_z
 _atom_site_occupancy
  Y  Y0  1  0.01298355  0.24999762  0.41849477  1
  Y  Y1  1  0.51298355  0.24999762  0.41849477  1
  Y  Y2  1  0.48702003  0.75000210  0.37317162  1
  Y  Y3  1  0.98702003  0.75000210  0.37317162  1
  Y  Y4  1  0.23702003  0.75000211  0.50182835  1
  Y  Y5  1  0.73702003  0.75000211  0.50182835  1
  Y  Y6  1  0.26298355  0.24999761  0.45650525  1
  Y  Y7  1  0.76298355  0.24999761  0.45650525  1
  Y  Y8  1  0.09028612  0.06164861  0.34181115  1
  Y  Y9  1  0.59028612  0.06164861  0.34181115  1
  Y  Y10  1  0.40971317  0.93834757  0.44985635  1
  Y  Y11  1  0.90971317  0.93834757  0.44985635  1
  Y  Y12  1  0.15971308  0.93834757  0.42514367  1
  Y  Y13  1  0.65971308  0.93834757  0.42514367  1
  Y  Y14  1  0.40971227  0.56165419  0.44985611  1
  Y  Y15  1  0.90971227  0.56165419  0.44985611  1
  Y  Y16  1  0.34028616  0.06164861  0.36652218  1
  Y  Y17  1  0.84028616  0.06164861  0.36652218  1
  Y  Y18  1  0.09028699  0.43835006  0.34181136  1
  Y  Y19  1  0.59028699  0.43835006  0.34181136  1
  Y  Y20  1  0.34028704  0.43835003  0.36652195  1
  Y  Y21  1  0.84028704  0.43835003  0.36652195  1
  Y  Y22  1  0.15971222  0.56165422  0.42514390  1
  Y  Y23  1  0.65971222  0.56165422  0.42514390  1
  Y  Y24  1  0.01298355  0.24999762  0.58516144  1
  Y  Y25  1  0.51298355  0.24999762  0.58516144  1
  Y  Y26  1  0.48702003  0.75000210  0.53983828  1
  Y  Y27  1  0.98702003  0.75000210  0.53983828  1
  Y  Y28  1  0.23126642  0.75000179  0.66245553  1
  Y  Y29  1  0.73127783  0.75000195  0.66244927  1
  Y  Y30  1  0.26965363  0.25000029  0.62267953  1
  Y  Y31  1  0.76964390  0.25000026  0.62267552  1
  Y  Y32  1  0.09028612  0.06164861  0.50847781  1
  Y  Y33  1  0.59028612  0.06164861  0.50847781  1
  Y  Y34  1  0.40971317  0.93834757  0.61652302  1
  Y  Y35  1  0.90971317  0.93834757  0.61652302  1
  Y  Y36  1  0.15971308  0.93834757  0.59181034  1
  Y  Y37  1  0.65971308  0.93834757  0.59181034  1
  Y  Y38  1  0.40971227  0.56165419  0.61652277  1
  Y  Y39  1  0.90971227  0.56165419  0.61652277  1
  Y  Y40  1  0.34028616  0.06164861  0.53318885  1
  Y  Y41  1  0.84028616  0.06164861  0.53318885  1
  Y  Y42  1  0.09028699  0.43835006  0.50847803  1
  Y  Y43  1  0.59028699  0.43835006  0.50847803  1
  Y  Y44  1  0.34028704  0.43835003  0.53318862  1
  Y  Y45  1  0.84028704  0.43835003  0.53318862  1
  Y  Y46  1  0.15971222  0.56165422  0.59181057  1
  Y  Y47  1  0.65971222  0.56165422  0.59181057  1
  Pd  Pd48  1  0.19431820  0.24999809  0.38617254  1
  Pd  Pd49  1  0.69431820  0.24999809  0.38617254  1
  Pd  Pd50  1  0.30567969  0.75000181  0.40549438  1
  Pd  Pd51  1  0.80567969  0.75000181  0.40549438  1
  Pd  Pd52  1  0.05567975  0.75000175  0.46950561  1
  Pd  Pd53  1  0.55567975  0.75000175  0.46950561  1
  Pd  Pd54  1  0.44431814  0.24999805  0.48882746  1
  Pd  Pd55  1  0.94431814  0.24999805  0.48882746  1
  Pd  Pd56  1  0.19431820  0.24999809  0.55283921  1
  Pd  Pd57  1  0.69431820  0.24999809  0.55283921  1
  Pd  Pd58  1  0.30567969  0.75000181  0.57216104  1
  Pd  Pd59  1  0.80567969  0.75000181  0.57216104  1
  Pd  Pd60  1  0.05571313  0.75000048  0.63244653  1
  Pd  Pd61  1  0.55573189  0.75000058  0.63244750  1
  Pd  Pd62  1  0.44757240  0.24999775  0.64920886  1
  Pd  Pd63  1  0.94756107  0.24999790  0.64921000  1
