# generated using pymatgen
data_Cd3Pd
_symmetry_space_group_name_H-M   'P 1'
_cell_length_a   12.19319975
_cell_length_b   12.19319988
_cell_length_c   60.35325913
_cell_angle_alpha   89.99999986
_cell_angle_beta   45.00000010
_cell_angle_gamma   59.99999944
_symmetry_Int_Tables_number   1
_chemical_formula_structural   Cd3Pd
_chemical_formula_sum   'Cd60 Pd20'
_cell_volume   4486.48385198
_cell_formula_units_Z   20
loop_
 _symmetry_equiv_pos_site_id
 _symmetry_equiv_pos_as_xyz
  1  'x, y, z'
loop_
 _atom_site_type_symbol
 _atom_site_label
 _atom_site_symmetry_multiplicity
 _atom_site_fract_x
 _atom_site_fract_y
 _atom_site_fract_z
 _atom_site_occupancy
  Cd  Cd0  1  0.25000000  0.25000000  0.35714286  1
  Cd  Cd1  1  0.25000000  0.75000000  0.35714286  1
  Cd  Cd2  1  0.75000000  0.25000000  0.35714286  1
  Cd  Cd3  1  0.75000000  0.75000000  0.35714286  1
  Cd  Cd4  1  0.50000000  0.25000000  0.35714286  1
  Cd  Cd5  1  0.50000000  0.75000000  0.35714286  1
  Cd  Cd6  1  1.00000000  0.25000000  0.35714286  1
  Cd  Cd7  1  1.00000000  0.75000000  0.35714286  1
  Cd  Cd8  1  0.25000000  0.00000000  0.35714286  1
  Cd  Cd9  1  0.25000000  0.50000000  0.35714286  1
  Cd  Cd10  1  0.75000000  0.00000000  0.35714286  1
  Cd  Cd11  1  0.75000000  0.50000000  0.35714286  1
  Cd  Cd12  1  0.25000000  0.25000000  0.42857143  1
  Cd  Cd13  1  0.25000000  0.75000000  0.42857143  1
  Cd  Cd14  1  0.75000000  0.25000000  0.42857143  1
  Cd  Cd15  1  0.75000000  0.75000000  0.42857143  1
  Cd  Cd16  1  0.50000000  0.25000000  0.42857143  1
  Cd  Cd17  1  0.50000000  0.75000000  0.42857143  1
  Cd  Cd18  1  1.00000000  0.25000000  0.42857143  1
  Cd  Cd19  1  1.00000000  0.75000000  0.42857143  1
  Cd  Cd20  1  0.25000000  0.00000000  0.42857143  1
  Cd  Cd21  1  0.25000000  0.50000000  0.42857143  1
  Cd  Cd22  1  0.75000000  0.00000000  0.42857143  1
  Cd  Cd23  1  0.75000000  0.50000000  0.42857143  1
  Cd  Cd24  1  0.25000000  0.25000000  0.50000000  1
  Cd  Cd25  1  0.25000000  0.75000000  0.50000000  1
  Cd  Cd26  1  0.75000000  0.25000000  0.50000000  1
  Cd  Cd27  1  0.75000000  0.75000000  0.50000000  1
  Cd  Cd28  1  0.50000000  0.25000000  0.50000000  1
  Cd  Cd29  1  0.50000000  0.75000000  0.50000000  1
  Cd  Cd30  1  1.00000000  0.25000000  0.50000000  1
  Cd  Cd31  1  1.00000000  0.75000000  0.50000000  1
  Cd  Cd32  1  0.25000000  0.00000000  0.50000000  1
  Cd  Cd33  1  0.25000000  0.50000000  0.50000000  1
  Cd  Cd34  1  0.75000000  0.00000000  0.50000000  1
  Cd  Cd35  1  0.75000000  0.50000000  0.50000000  1
  Cd  Cd36  1  0.25000000  0.25000000  0.57142857  1
  Cd  Cd37  1  0.25000000  0.75000000  0.57142857  1
  Cd  Cd38  1  0.75000000  0.25000000  0.57142857  1
  Cd  Cd39  1  0.75000000  0.75000000  0.57142857  1
  Cd  Cd40  1  0.50000000  0.25000000  0.57142857  1
  Cd  Cd41  1  0.50000000  0.75000000  0.57142857  1
  Cd  Cd42  1  1.00000000  0.25000000  0.57142857  1
  Cd  Cd43  1  1.00000000  0.75000000  0.57142857  1
  Cd  Cd44  1  0.25000000  0.00000000  0.57142857  1
  Cd  Cd45  1  0.25000000  0.50000000  0.57142857  1
  Cd  Cd46  1  0.75000000  0.00000000  0.57142857  1
  Cd  Cd47  1  0.75000000  0.50000000  0.57142857  1
  Cd  Cd48  1  0.21909187  0.26416170  0.64929424  1
  Cd  Cd49  1  0.21909209  0.76416155  0.64929416  1
  Cd  Cd50  1  0.71909202  0.26416158  0.64929420  1
  Cd  Cd51  1  0.71909173  0.76416181  0.64929425  1
  Cd  Cd52  1  0.47168793  0.26415482  0.64929535  1
  Cd  Cd53  1  0.47168778  0.76415487  0.64929538  1
  Cd  Cd54  1  0.97168770  0.26415493  0.64929543  1
  Cd  Cd55  1  0.97168782  0.76415484  0.64929540  1
  Cd  Cd56  1  0.21909201  0.01674279  0.64929464  1
  Cd  Cd57  1  0.21909212  0.51674257  0.64929464  1
  Cd  Cd58  1  0.71909204  0.01674272  0.64929465  1
  Cd  Cd59  1  0.71909188  0.51674271  0.64929469  1
  Pd  Pd60  1  0.00000000  0.50000000  0.35714286  1
  Pd  Pd61  1  0.00000000  1.00000000  0.35714286  1
  Pd  Pd62  1  0.50000000  0.50000000  0.35714286  1
  Pd  Pd63  1  0.50000000  1.00000000  0.35714286  1
  Pd  Pd64  1  0.00000000  0.50000000  0.42857143  1
  Pd  Pd65  1  0.00000000  1.00000000  0.42857143  1
  Pd  Pd66  1  0.50000000  0.50000000  0.42857143  1
  Pd  Pd67  1  0.50000000  1.00000000  0.42857143  1
  Pd  Pd68  1  0.00000000  0.50000000  0.50000000  1
  Pd  Pd69  1  0.00000000  1.00000000  0.50000000  1
  Pd  Pd70  1  0.50000000  0.50000000  0.50000000  1
  Pd  Pd71  1  0.50000000  1.00000000  0.50000000  1
  Pd  Pd72  1  0.00000000  0.50000000  0.57142857  1
  Pd  Pd73  1  0.00000000  1.00000000  0.57142857  1
  Pd  Pd74  1  0.50000000  0.50000000  0.57142857  1
  Pd  Pd75  1  0.50000000  1.00000000  0.57142857  1
  Pd  Pd76  1  0.03004549  0.48497616  0.63641860  1
  Pd  Pd77  1  0.03004424  0.98497677  0.63641886  1
  Pd  Pd78  1  0.53004330  0.48497723  0.63641908  1
  Pd  Pd79  1  0.53004432  0.98497674  0.63641885  1
