# generated using pymatgen
data_GaCuPd2
_symmetry_space_group_name_H-M   'P 1'
_cell_length_a   8.70225187
_cell_length_b   8.70225189
_cell_length_c   36.92052846
_cell_angle_alpha   90.00000040
_cell_angle_beta   89.99999737
_cell_angle_gamma   90.00000461
_symmetry_Int_Tables_number   1
_chemical_formula_structural   GaCuPd2
_chemical_formula_sum   'Ga16 Cu16 Pd32'
_cell_volume   2795.96163279
_cell_formula_units_Z   16
loop_
 _symmetry_equiv_pos_site_id
 _symmetry_equiv_pos_as_xyz
  1  'x, y, z'
loop_
 _atom_site_type_symbol
 _atom_site_label
 _atom_site_symmetry_multiplicity
 _atom_site_fract_x
 _atom_site_fract_y
 _atom_site_fract_z
 _atom_site_occupancy
  Cu  Cu0  1  0.50000000  0.50000000  0.40062294  1
  Cu  Cu1  1  0.50000000  1.00000000  0.40062294  1
  Cu  Cu2  1  1.00000000  0.50000000  0.40062294  1
  Cu  Cu3  1  1.00000000  1.00000000  0.40062294  1
  Cu  Cu4  1  0.24999996  0.25000000  0.48395630  1
  Cu  Cu5  1  0.24999996  0.75000000  0.48395630  1
  Cu  Cu6  1  0.74999996  0.25000000  0.48395630  1
  Cu  Cu7  1  0.74999996  0.75000000  0.48395630  1
  Cu  Cu8  1  0.50000000  0.50000000  0.56728960  1
  Cu  Cu9  1  0.50000000  1.00000000  0.56728960  1
  Cu  Cu10  1  1.00000000  0.50000000  0.56728960  1
  Cu  Cu11  1  1.00000000  1.00000000  0.56728960  1
  Cu  Cu12  1  0.24999997  0.24999999  0.65105476  1
  Cu  Cu13  1  0.24999995  0.75000000  0.65105474  1
  Cu  Cu14  1  0.74999996  0.25000001  0.65105475  1
  Cu  Cu15  1  0.74999996  0.75000001  0.65105475  1
  Ga  Ga16  1  0.49999992  0.00000000  0.48395628  1
  Ga  Ga17  1  0.49999992  0.50000000  0.48395628  1
  Ga  Ga18  1  0.99999992  0.00000000  0.48395628  1
  Ga  Ga19  1  0.99999992  0.50000000  0.48395628  1
  Ga  Ga20  1  0.24999996  0.25000000  0.40062295  1
  Ga  Ga21  1  0.24999996  0.75000000  0.40062295  1
  Ga  Ga22  1  0.74999996  0.25000000  0.40062295  1
  Ga  Ga23  1  0.74999996  0.75000000  0.40062295  1
  Ga  Ga24  1  0.49999993  0.99999999  0.64829040  1
  Ga  Ga25  1  0.49999998  0.49999999  0.64829038  1
  Ga  Ga26  1  0.99999998  0.99999997  0.64829040  1
  Ga  Ga27  1  0.99999998  0.50000001  0.64829040  1
  Ga  Ga28  1  0.24999996  0.25000000  0.56728961  1
  Ga  Ga29  1  0.24999996  0.75000000  0.56728961  1
  Ga  Ga30  1  0.74999996  0.25000000  0.56728961  1
  Ga  Ga31  1  0.74999996  0.75000000  0.56728961  1
  Pd  Pd32  1  0.49999998  0.25000001  0.35895617  1
  Pd  Pd33  1  0.49999998  0.75000001  0.35895617  1
  Pd  Pd34  1  0.99999998  0.25000001  0.35895617  1
  Pd  Pd35  1  0.99999998  0.75000001  0.35895617  1
  Pd  Pd36  1  0.24999992  0.00000000  0.35895617  1
  Pd  Pd37  1  0.24999992  0.50000000  0.35895617  1
  Pd  Pd38  1  0.74999992  0.00000000  0.35895617  1
  Pd  Pd39  1  0.74999992  0.50000000  0.35895617  1
  Pd  Pd40  1  0.25000000  0.49999998  0.44228974  1
  Pd  Pd41  1  0.25000000  0.99999998  0.44228974  1
  Pd  Pd42  1  0.75000000  0.49999998  0.44228974  1
  Pd  Pd43  1  0.75000000  0.99999998  0.44228974  1
  Pd  Pd44  1  0.49999996  0.25000001  0.44228972  1
  Pd  Pd45  1  0.49999996  0.75000001  0.44228972  1
  Pd  Pd46  1  0.99999996  0.25000001  0.44228972  1
  Pd  Pd47  1  0.99999996  0.75000001  0.44228972  1
  Pd  Pd48  1  0.49999998  0.25000001  0.52562283  1
  Pd  Pd49  1  0.49999998  0.75000001  0.52562283  1
  Pd  Pd50  1  0.99999998  0.25000001  0.52562283  1
  Pd  Pd51  1  0.99999998  0.75000001  0.52562283  1
  Pd  Pd52  1  0.24999992  0.00000000  0.52562283  1
  Pd  Pd53  1  0.24999992  0.50000000  0.52562283  1
  Pd  Pd54  1  0.74999992  0.00000000  0.52562283  1
  Pd  Pd55  1  0.74999992  0.50000000  0.52562283  1
  Pd  Pd56  1  0.25000001  0.50000002  0.61021681  1
  Pd  Pd57  1  0.24999995  0.99999996  0.61021682  1
  Pd  Pd58  1  0.74999994  0.50000000  0.61021681  1
  Pd  Pd59  1  0.74999997  0.99999999  0.61021682  1
  Pd  Pd60  1  0.49999996  0.24999999  0.61021681  1
  Pd  Pd61  1  0.49999993  0.74999998  0.61021681  1
  Pd  Pd62  1  0.99999994  0.24999998  0.61021681  1
  Pd  Pd63  1  0.99999998  0.75000003  0.61021680  1
