# generated using pymatgen
data_BaCuGe
_symmetry_space_group_name_H-M   'P 1'
_cell_length_a   8.67703222
_cell_length_b   10.13018196
_cell_length_c   39.04662153
_cell_angle_alpha   89.99999791
_cell_angle_beta   119.99994176
_cell_angle_gamma   90.00001158
_symmetry_Int_Tables_number   1
_chemical_formula_structural   BaCuGe
_chemical_formula_sum   'Ba12 Cu12 Ge12'
_cell_volume   2972.36956508
_cell_formula_units_Z   12
loop_
 _symmetry_equiv_pos_site_id
 _symmetry_equiv_pos_as_xyz
  1  'x, y, z'
loop_
 _atom_site_type_symbol
 _atom_site_label
 _atom_site_symmetry_multiplicity
 _atom_site_fract_x
 _atom_site_fract_y
 _atom_site_fract_z
 _atom_site_occupancy
  Ba  Ba0  1  0.00281570  0.49999904  0.61433002  1
  Ba  Ba1  1  0.00281577  0.00000094  0.61433003  1
  Ba  Ba2  1  0.50281556  0.49999909  0.61432999  1
  Ba  Ba3  1  0.50281561  0.00000097  0.61433001  1
  Ba  Ba4  1  0.00000007  0.49999998  0.50123148  1
  Ba  Ba5  1  0.00000007  0.99999998  0.50123148  1
  Ba  Ba6  1  0.50000007  0.49999998  0.50123148  1
  Ba  Ba7  1  0.50000007  0.99999998  0.50123148  1
  Ba  Ba8  1  0.00000007  0.49999998  0.39012037  1
  Ba  Ba9  1  0.00000007  0.99999998  0.39012037  1
  Ba  Ba10  1  0.50000007  0.49999998  0.39012037  1
  Ba  Ba11  1  0.50000007  0.99999998  0.39012037  1
  Cu  Cu12  1  0.32423580  0.24999996  0.64580992  1
  Cu  Cu13  1  0.32423448  0.74999999  0.64580930  1
  Cu  Cu14  1  0.82423600  0.25000001  0.64581007  1
  Cu  Cu15  1  0.82423407  0.75000002  0.64580913  1
  Cu  Cu16  1  0.33333308  0.24999997  0.53826843  1
  Cu  Cu17  1  0.33333308  0.74999997  0.53826843  1
  Cu  Cu18  1  0.83333308  0.24999997  0.53826843  1
  Cu  Cu19  1  0.83333308  0.74999997  0.53826843  1
  Cu  Cu20  1  0.33333308  0.24999997  0.42715731  1
  Cu  Cu21  1  0.33333308  0.74999997  0.42715731  1
  Cu  Cu22  1  0.83333308  0.24999997  0.42715731  1
  Cu  Cu23  1  0.83333308  0.74999997  0.42715731  1
  Ge  Ge24  1  0.16666656  0.25000005  0.57530549  1
  Ge  Ge25  1  0.16666656  0.75000005  0.57530549  1
  Ge  Ge26  1  0.66666656  0.25000005  0.57530549  1
  Ge  Ge27  1  0.66666656  0.75000005  0.57530549  1
  Ge  Ge28  1  0.16666656  0.25000005  0.46419438  1
  Ge  Ge29  1  0.16666656  0.75000005  0.46419438  1
  Ge  Ge30  1  0.66666656  0.25000005  0.46419438  1
  Ge  Ge31  1  0.66666656  0.75000005  0.46419438  1
  Ge  Ge32  1  0.16666656  0.25000005  0.35308327  1
  Ge  Ge33  1  0.16666656  0.75000005  0.35308327  1
  Ge  Ge34  1  0.66666656  0.25000005  0.35308327  1
  Ge  Ge35  1  0.66666656  0.75000005  0.35308327  1
