# generated using pymatgen
data_BaCuSb
_symmetry_space_group_name_H-M   'P 1'
_cell_length_a   9.39298212
_cell_length_b   9.72724576
_cell_length_c   37.57192364
_cell_angle_alpha   89.99999741
_cell_angle_beta   120.00001734
_cell_angle_gamma   90.00000022
_symmetry_Int_Tables_number   1
_chemical_formula_structural   BaCuSb
_chemical_formula_sum   'Ba12 Cu12 Sb12'
_cell_volume   2972.94839622
_cell_formula_units_Z   12
loop_
 _symmetry_equiv_pos_site_id
 _symmetry_equiv_pos_as_xyz
  1  'x, y, z'
loop_
 _atom_site_type_symbol
 _atom_site_label
 _atom_site_symmetry_multiplicity
 _atom_site_fract_x
 _atom_site_fract_y
 _atom_site_fract_z
 _atom_site_occupancy
  Ba  Ba0  1  0.00000001  0.99999989  0.37499999  1
  Ba  Ba1  1  0.50000001  0.99999989  0.37499999  1
  Ba  Ba2  1  0.50000000  0.50000009  0.37500000  1
  Ba  Ba3  1  1.00000000  0.50000009  0.37500000  1
  Ba  Ba4  1  0.00000001  0.99999989  0.49999999  1
  Ba  Ba5  1  0.50000001  0.99999989  0.49999999  1
  Ba  Ba6  1  0.50000000  0.50000009  0.50000000  1
  Ba  Ba7  1  1.00000000  0.50000009  0.50000000  1
  Ba  Ba8  1  0.01328852  0.99087177  0.63160720  1
  Ba  Ba9  1  0.51328835  0.99087183  0.63160723  1
  Ba  Ba10  1  0.51328830  0.50912822  0.63160719  1
  Ba  Ba11  1  0.01328857  0.50912813  0.63160721  1
  Cu  Cu12  1  0.33333332  0.24999990  0.41666666  1
  Cu  Cu13  1  0.83333332  0.24999990  0.41666666  1
  Cu  Cu14  1  0.16666669  0.75000011  0.33333334  1
  Cu  Cu15  1  0.66666669  0.75000011  0.33333334  1
  Cu  Cu16  1  0.33333332  0.24999990  0.54166666  1
  Cu  Cu17  1  0.83333332  0.24999990  0.54166666  1
  Cu  Cu18  1  0.16666669  0.75000011  0.45833334  1
  Cu  Cu19  1  0.66666669  0.75000011  0.45833334  1
  Cu  Cu20  1  0.32506596  0.24999997  0.66223901  1
  Cu  Cu21  1  0.82506465  0.24999994  0.66223834  1
  Cu  Cu22  1  0.16666669  0.75000011  0.58333334  1
  Cu  Cu23  1  0.66666669  0.75000011  0.58333334  1
  Sb  Sb24  1  0.16666659  0.24999995  0.33333334  1
  Sb  Sb25  1  0.66666659  0.24999995  0.33333334  1
  Sb  Sb26  1  0.33333339  0.75000006  0.41666666  1
  Sb  Sb27  1  0.83333339  0.75000006  0.41666666  1
  Sb  Sb28  1  0.16666659  0.24999995  0.45833334  1
  Sb  Sb29  1  0.66666659  0.24999995  0.45833334  1
  Sb  Sb30  1  0.33333339  0.75000006  0.54166666  1
  Sb  Sb31  1  0.83333339  0.75000006  0.54166666  1
  Sb  Sb32  1  0.16666659  0.24999995  0.58333334  1
  Sb  Sb33  1  0.66666659  0.24999995  0.58333334  1
  Sb  Sb34  1  0.32475417  0.75000001  0.66257339  1
  Sb  Sb35  1  0.82475465  0.74999998  0.66257361  1
