# generated using pymatgen
data_Y2PdRh
_symmetry_space_group_name_H-M   'P 1'
_cell_length_a   9.91598501
_cell_length_b   9.91598497
_cell_length_c   35.05829602
_cell_angle_alpha   89.99999948
_cell_angle_beta   89.99999919
_cell_angle_gamma   90.00000607
_symmetry_Int_Tables_number   1
_chemical_formula_structural   Y2PdRh
_chemical_formula_sum   'Y32 Pd16 Rh16'
_cell_volume   3447.16859994
_cell_formula_units_Z   16
loop_
 _symmetry_equiv_pos_site_id
 _symmetry_equiv_pos_as_xyz
  1  'x, y, z'
loop_
 _atom_site_type_symbol
 _atom_site_label
 _atom_site_symmetry_multiplicity
 _atom_site_fract_x
 _atom_site_fract_y
 _atom_site_fract_z
 _atom_site_occupancy
  Pd  Pd0  1  0.49999990  0.00000000  0.37296495  1
  Pd  Pd1  1  0.49999990  0.50000000  0.37296495  1
  Pd  Pd2  1  0.99999990  0.00000000  0.37296495  1
  Pd  Pd3  1  0.99999990  0.50000000  0.37296495  1
  Pd  Pd4  1  0.24999995  0.25000000  0.47296495  1
  Pd  Pd5  1  0.24999995  0.75000000  0.47296495  1
  Pd  Pd6  1  0.74999995  0.25000000  0.47296495  1
  Pd  Pd7  1  0.74999995  0.75000000  0.47296495  1
  Pd  Pd8  1  0.49999990  0.00000000  0.57296495  1
  Pd  Pd9  1  0.49999990  0.50000000  0.57296495  1
  Pd  Pd10  1  0.99999990  0.00000000  0.57296495  1
  Pd  Pd11  1  0.99999990  0.50000000  0.57296495  1
  Pd  Pd12  1  0.24999978  0.25000026  0.66637235  1
  Pd  Pd13  1  0.24999980  0.74999975  0.66637421  1
  Pd  Pd14  1  0.74999997  0.25000025  0.66637421  1
  Pd  Pd15  1  0.74999998  0.74999977  0.66637243  1
  Rh  Rh16  1  0.49999989  0.00000000  0.47296494  1
  Rh  Rh17  1  0.49999989  0.50000000  0.47296494  1
  Rh  Rh18  1  0.99999989  0.00000000  0.47296494  1
  Rh  Rh19  1  0.99999989  0.50000000  0.47296494  1
  Rh  Rh20  1  0.24999995  0.25000000  0.37296495  1
  Rh  Rh21  1  0.24999995  0.75000000  0.37296495  1
  Rh  Rh22  1  0.74999995  0.25000000  0.37296495  1
  Rh  Rh23  1  0.74999995  0.75000000  0.37296495  1
  Rh  Rh24  1  0.49999999  0.99999997  0.65991880  1
  Rh  Rh25  1  0.49999997  0.50000000  0.65990804  1
  Rh  Rh26  1  0.99999994  0.99999997  0.65990778  1
  Rh  Rh27  1  0.99999993  0.49999999  0.65991641  1
  Rh  Rh28  1  0.24999995  0.25000000  0.57296495  1
  Rh  Rh29  1  0.24999995  0.75000000  0.57296495  1
  Rh  Rh30  1  0.74999995  0.25000000  0.57296495  1
  Rh  Rh31  1  0.74999995  0.75000000  0.57296495  1
  Y  Y32  1  0.49999995  0.25000000  0.32296495  1
  Y  Y33  1  0.49999995  0.75000000  0.32296495  1
  Y  Y34  1  0.99999995  0.25000000  0.32296495  1
  Y  Y35  1  0.99999995  0.75000000  0.32296495  1
  Y  Y36  1  0.25000000  0.50000000  0.32296494  1
  Y  Y37  1  0.25000000  1.00000000  0.32296494  1
  Y  Y38  1  0.75000000  0.50000000  0.32296494  1
  Y  Y39  1  0.75000000  1.00000000  0.32296494  1
  Y  Y40  1  0.24999989  0.00000000  0.42296495  1
  Y  Y41  1  0.24999989  0.50000000  0.42296495  1
  Y  Y42  1  0.74999989  0.00000000  0.42296495  1
  Y  Y43  1  0.74999989  0.50000000  0.42296495  1
  Y  Y44  1  0.49999995  0.25000000  0.42296495  1
  Y  Y45  1  0.49999995  0.75000000  0.42296495  1
  Y  Y46  1  0.99999995  0.25000000  0.42296495  1
  Y  Y47  1  0.99999995  0.75000000  0.42296495  1
  Y  Y48  1  0.49999995  0.25000000  0.52296495  1
  Y  Y49  1  0.49999995  0.75000000  0.52296495  1
  Y  Y50  1  0.99999995  0.25000000  0.52296495  1
  Y  Y51  1  0.99999995  0.75000000  0.52296495  1
  Y  Y52  1  0.25000000  0.50000000  0.52296494  1
  Y  Y53  1  0.25000000  1.00000000  0.52296494  1
  Y  Y54  1  0.75000000  0.50000000  0.52296494  1
  Y  Y55  1  0.75000000  1.00000000  0.52296494  1
  Y  Y56  1  0.24996969  0.00000639  0.62447116  1
  Y  Y57  1  0.25002605  0.49999355  0.62447122  1
  Y  Y58  1  0.75002991  0.99999364  0.62447115  1
  Y  Y59  1  0.74997357  0.50000628  0.62447121  1
  Y  Y60  1  0.49999360  0.25003040  0.62447120  1
  Y  Y61  1  0.50000635  0.74996966  0.62447118  1
  Y  Y62  1  0.00000643  0.24997404  0.62447119  1
  Y  Y63  1  0.99999370  0.75002605  0.62447118  1
