# generated using pymatgen
data_Ti2MoPd
_symmetry_space_group_name_H-M   'P 1'
_cell_length_a   8.96748175
_cell_length_b   8.96748512
_cell_length_c   32.94861891
_cell_angle_alpha   90.00008070
_cell_angle_beta   90.00006517
_cell_angle_gamma   59.99994106
_symmetry_Int_Tables_number   1
_chemical_formula_structural   Ti2MoPd
_chemical_formula_sum   'Ti24 Mo12 Pd12'
_cell_volume   2294.60933053
_cell_formula_units_Z   12
loop_
 _symmetry_equiv_pos_site_id
 _symmetry_equiv_pos_as_xyz
  1  'x, y, z'
loop_
 _atom_site_type_symbol
 _atom_site_label
 _atom_site_symmetry_multiplicity
 _atom_site_fract_x
 _atom_site_fract_y
 _atom_site_fract_z
 _atom_site_occupancy
  Mo  Mo0  1  0.37500027  0.37500002  0.36905543  1
  Mo  Mo1  1  0.37500027  0.87500002  0.36905543  1
  Mo  Mo2  1  0.87500027  0.37500002  0.36905543  1
  Mo  Mo3  1  0.87500027  0.87500002  0.36905543  1
  Mo  Mo4  1  0.04166765  0.04166668  0.48016654  1
  Mo  Mo5  1  0.04166765  0.54166668  0.48016654  1
  Mo  Mo6  1  0.54166765  0.04166668  0.48016654  1
  Mo  Mo7  1  0.54166765  0.54166668  0.48016654  1
  Mo  Mo8  1  0.20835552  0.20832430  0.59199136  1
  Mo  Mo9  1  0.20833803  0.70832986  0.59199214  1
  Mo  Mo10  1  0.70832068  0.20832689  0.59199101  1
  Mo  Mo11  1  0.70832274  0.70835230  0.59199141  1
  Pd  Pd12  1  0.20833398  0.20833332  0.42461113  1
  Pd  Pd13  1  0.20833398  0.70833332  0.42461113  1
  Pd  Pd14  1  0.70833398  0.20833332  0.42461113  1
  Pd  Pd15  1  0.70833398  0.70833332  0.42461113  1
  Pd  Pd16  1  0.37500029  0.37499999  0.53572209  1
  Pd  Pd17  1  0.37500029  0.87499999  0.53572209  1
  Pd  Pd18  1  0.87500029  0.37499999  0.53572209  1
  Pd  Pd19  1  0.87500029  0.87499999  0.53572209  1
  Pd  Pd20  1  0.04167069  0.04165975  0.64307642  1
  Pd  Pd21  1  0.04167316  0.54166953  0.64307696  1
  Pd  Pd22  1  0.54166659  0.04166910  0.64307781  1
  Pd  Pd23  1  0.54165913  0.54166918  0.64307656  1
  Ti  Ti24  1  0.04166771  0.04166670  0.39683320  1
  Ti  Ti25  1  0.04166771  0.54166670  0.39683320  1
  Ti  Ti26  1  0.54166771  0.04166670  0.39683320  1
  Ti  Ti27  1  0.54166771  0.54166670  0.39683320  1
  Ti  Ti28  1  0.20833390  0.20833330  0.34127779  1
  Ti  Ti29  1  0.20833390  0.70833330  0.34127779  1
  Ti  Ti30  1  0.70833390  0.20833330  0.34127779  1
  Ti  Ti31  1  0.70833390  0.70833330  0.34127779  1
  Ti  Ti32  1  0.20833401  0.20833336  0.50794446  1
  Ti  Ti33  1  0.20833401  0.70833336  0.50794446  1
  Ti  Ti34  1  0.70833401  0.20833336  0.50794446  1
  Ti  Ti35  1  0.70833401  0.70833336  0.50794446  1
  Ti  Ti36  1  0.37500021  0.37499996  0.45238874  1
  Ti  Ti37  1  0.37500021  0.87499996  0.45238874  1
  Ti  Ti38  1  0.87500021  0.37499996  0.45238874  1
  Ti  Ti39  1  0.87500021  0.87499996  0.45238874  1
  Ti  Ti40  1  0.37500468  0.37499299  0.61718770  1
  Ti  Ti41  1  0.37500705  0.87500254  0.61719089  1
  Ti  Ti42  1  0.87499999  0.37500210  0.61719167  1
  Ti  Ti43  1  0.87499224  0.87500278  0.61719105  1
  Ti  Ti44  1  0.04166759  0.04166663  0.56349986  1
  Ti  Ti45  1  0.04166759  0.54166663  0.56349986  1
  Ti  Ti46  1  0.54166759  0.04166663  0.56349986  1
  Ti  Ti47  1  0.54166759  0.54166663  0.56349986  1
