# generated using pymatgen
data_ScCu
_symmetry_space_group_name_H-M   'P 1'
_cell_length_a   9.89268998
_cell_length_b   9.32691840
_cell_length_c   46.16587898
_cell_angle_alpha   45.00000908
_cell_angle_beta   89.99998865
_cell_angle_gamma   89.99999124
_symmetry_Int_Tables_number   1
_chemical_formula_structural   ScCu
_chemical_formula_sum   'Sc30 Cu30'
_cell_volume   3012.02627447
_cell_formula_units_Z   30
loop_
 _symmetry_equiv_pos_site_id
 _symmetry_equiv_pos_as_xyz
  1  'x, y, z'
loop_
 _atom_site_type_symbol
 _atom_site_label
 _atom_site_symmetry_multiplicity
 _atom_site_fract_x
 _atom_site_fract_y
 _atom_site_fract_z
 _atom_site_occupancy
  Sc  Sc0  1  0.16666667  0.25000000  0.35714286  1
  Sc  Sc1  1  0.16666667  0.75000000  0.35714286  1
  Sc  Sc2  1  0.50000000  0.25000000  0.35714286  1
  Sc  Sc3  1  0.50000000  0.75000000  0.35714286  1
  Sc  Sc4  1  0.83333334  0.25000000  0.35714286  1
  Sc  Sc5  1  0.83333334  0.75000000  0.35714286  1
  Sc  Sc6  1  0.16666667  0.25000000  0.42857143  1
  Sc  Sc7  1  0.16666667  0.75000000  0.42857143  1
  Sc  Sc8  1  0.50000000  0.25000000  0.42857143  1
  Sc  Sc9  1  0.50000000  0.75000000  0.42857143  1
  Sc  Sc10  1  0.83333334  0.25000000  0.42857143  1
  Sc  Sc11  1  0.83333334  0.75000000  0.42857143  1
  Sc  Sc12  1  0.16666667  0.25000000  0.50000000  1
  Sc  Sc13  1  0.16666667  0.75000000  0.50000000  1
  Sc  Sc14  1  0.50000000  0.25000000  0.50000000  1
  Sc  Sc15  1  0.50000000  0.75000000  0.50000000  1
  Sc  Sc16  1  0.83333334  0.25000000  0.50000000  1
  Sc  Sc17  1  0.83333334  0.75000000  0.50000000  1
  Sc  Sc18  1  0.16666667  0.25000000  0.57142857  1
  Sc  Sc19  1  0.16666667  0.75000000  0.57142857  1
  Sc  Sc20  1  0.50000000  0.25000000  0.57142857  1
  Sc  Sc21  1  0.50000000  0.75000000  0.57142857  1
  Sc  Sc22  1  0.83333334  0.25000000  0.57142857  1
  Sc  Sc23  1  0.83333334  0.75000000  0.57142857  1
  Sc  Sc24  1  0.16667477  0.25180628  0.64233159  1
  Sc  Sc25  1  0.16667440  0.75180655  0.64233155  1
  Sc  Sc26  1  0.50000002  0.25179444  0.64233424  1
  Sc  Sc27  1  0.49999994  0.75179445  0.64233419  1
  Sc  Sc28  1  0.83332518  0.25180623  0.64233163  1
  Sc  Sc29  1  0.83332569  0.75180631  0.64233160  1
  Cu  Cu30  1  0.33333333  0.50000000  0.35714286  1
  Cu  Cu31  1  0.33333333  1.00000000  0.35714286  1
  Cu  Cu32  1  0.66666666  0.50000000  0.35714286  1
  Cu  Cu33  1  0.66666666  1.00000000  0.35714286  1
  Cu  Cu34  1  1.00000000  0.50000000  0.35714286  1
  Cu  Cu35  1  1.00000000  1.00000000  0.35714286  1
  Cu  Cu36  1  0.33333333  0.50000000  0.42857143  1
  Cu  Cu37  1  0.33333333  1.00000000  0.42857143  1
  Cu  Cu38  1  0.66666666  0.50000000  0.42857143  1
  Cu  Cu39  1  0.66666666  1.00000000  0.42857143  1
  Cu  Cu40  1  1.00000000  0.50000000  0.42857143  1
  Cu  Cu41  1  1.00000000  1.00000000  0.42857143  1
  Cu  Cu42  1  0.33333333  0.50000000  0.50000000  1
  Cu  Cu43  1  0.33333333  1.00000000  0.50000000  1
  Cu  Cu44  1  0.66666666  0.50000000  0.50000000  1
  Cu  Cu45  1  0.66666666  1.00000000  0.50000000  1
  Cu  Cu46  1  1.00000000  0.50000000  0.50000000  1
  Cu  Cu47  1  1.00000000  1.00000000  0.50000000  1
  Cu  Cu48  1  0.33333333  0.50000000  0.57142857  1
  Cu  Cu49  1  0.33333333  1.00000000  0.57142857  1
  Cu  Cu50  1  0.66666666  0.50000000  0.57142857  1
  Cu  Cu51  1  0.66666666  1.00000000  0.57142857  1
  Cu  Cu52  1  1.00000000  0.50000000  0.57142857  1
  Cu  Cu53  1  1.00000000  1.00000000  0.57142857  1
  Cu  Cu54  1  0.33342755  0.51917198  0.63737280  1
  Cu  Cu55  1  0.33342803  0.01917267  0.63737278  1
  Cu  Cu56  1  0.66657235  0.51917191  0.63737282  1
  Cu  Cu57  1  0.66657223  0.01917262  0.63737282  1
  Cu  Cu58  1  0.00000011  0.51916139  0.63737355  1
  Cu  Cu59  1  0.99999968  0.01916150  0.63737352  1
