# generated using pymatgen
data_CuAu3
_symmetry_space_group_name_H-M   'P 1'
_cell_length_a   11.49720637
_cell_length_b   11.49721000
_cell_length_c   38.23101678
_cell_angle_alpha   89.99999626
_cell_angle_beta   89.99998944
_cell_angle_gamma   120.00000657
_symmetry_Int_Tables_number   1
_chemical_formula_structural   CuAu3
_chemical_formula_sum   'Cu24 Au72'
_cell_volume   4376.54342623
_cell_formula_units_Z   24
loop_
 _symmetry_equiv_pos_site_id
 _symmetry_equiv_pos_as_xyz
  1  'x, y, z'
loop_
 _atom_site_type_symbol
 _atom_site_label
 _atom_site_symmetry_multiplicity
 _atom_site_fract_x
 _atom_site_fract_y
 _atom_site_fract_z
 _atom_site_occupancy
  Cu  Cu0  1  0.33333335  0.16666665  0.40625000  1
  Cu  Cu1  1  0.33333335  0.66666665  0.40625000  1
  Cu  Cu2  1  0.83333335  0.16666665  0.40625000  1
  Cu  Cu3  1  0.83333335  0.66666665  0.40625000  1
  Cu  Cu4  1  0.16666666  0.33333336  0.34375001  1
  Cu  Cu5  1  0.16666666  0.83333336  0.34375001  1
  Cu  Cu6  1  0.66666666  0.33333336  0.34375001  1
  Cu  Cu7  1  0.66666666  0.83333336  0.34375001  1
  Cu  Cu8  1  0.33333335  0.16666665  0.53125000  1
  Cu  Cu9  1  0.33333335  0.66666665  0.53125000  1
  Cu  Cu10  1  0.83333335  0.16666665  0.53125000  1
  Cu  Cu11  1  0.83333335  0.66666665  0.53125000  1
  Cu  Cu12  1  0.16666666  0.33333336  0.46875001  1
  Cu  Cu13  1  0.16666666  0.83333336  0.46875001  1
  Cu  Cu14  1  0.66666666  0.33333336  0.46875001  1
  Cu  Cu15  1  0.66666666  0.83333336  0.46875001  1
  Cu  Cu16  1  0.33333343  0.16666639  0.65293815  1
  Cu  Cu17  1  0.33333373  0.66666651  0.65293804  1
  Cu  Cu18  1  0.83333333  0.16666644  0.65293802  1
  Cu  Cu19  1  0.83333348  0.66666656  0.65293825  1
  Cu  Cu20  1  0.16666666  0.33333336  0.59375001  1
  Cu  Cu21  1  0.16666666  0.83333336  0.59375001  1
  Cu  Cu22  1  0.66666666  0.33333336  0.59375001  1
  Cu  Cu23  1  0.66666666  0.83333336  0.59375001  1
  Au  Au24  1  0.16929583  0.08464787  0.34374999  1
  Au  Au25  1  0.16929583  0.58464787  0.34374999  1
  Au  Au26  1  0.66929583  0.08464787  0.34374999  1
  Au  Au27  1  0.66929583  0.58464787  0.34374999  1
  Au  Au28  1  0.41535207  0.08464791  0.34374999  1
  Au  Au29  1  0.41535207  0.58464791  0.34374999  1
  Au  Au30  1  0.91535207  0.08464791  0.34374999  1
  Au  Au31  1  0.91535207  0.58464791  0.34374999  1
  Au  Au32  1  0.41535212  0.33070421  0.34375000  1
  Au  Au33  1  0.41535212  0.83070421  0.34375000  1
  Au  Au34  1  0.91535212  0.33070421  0.34375000  1
  Au  Au35  1  0.91535212  0.83070421  0.34375000  1
  Au  Au36  1  0.33070335  0.41535169  0.40625001  1
  Au  Au37  1  0.33070335  0.91535169  0.40625001  1
  Au  Au38  1  0.83070335  0.41535169  0.40625001  1
  Au  Au39  1  0.83070335  0.91535169  0.40625001  1
  Au  Au40  1  0.08464833  0.41535171  0.40625000  1
  Au  Au41  1  0.08464833  0.91535171  0.40625000  1
  Au  Au42  1  0.58464833  0.41535171  0.40625000  1
  Au  Au43  1  0.58464833  0.91535171  0.40625000  1
  Au  Au44  1  0.08464829  0.16929660  0.40624999  1
  Au  Au45  1  0.08464829  0.66929660  0.40624999  1
  Au  Au46  1  0.58464829  0.16929660  0.40624999  1
  Au  Au47  1  0.58464829  0.66929660  0.40624999  1
  Au  Au48  1  0.16929583  0.08464787  0.46874999  1
  Au  Au49  1  0.16929583  0.58464787  0.46874999  1
  Au  Au50  1  0.66929583  0.08464787  0.46874999  1
  Au  Au51  1  0.66929583  0.58464787  0.46874999  1
  Au  Au52  1  0.41535207  0.08464791  0.46874999  1
  Au  Au53  1  0.41535207  0.58464791  0.46874999  1
  Au  Au54  1  0.91535207  0.08464791  0.46874999  1
  Au  Au55  1  0.91535207  0.58464791  0.46874999  1
  Au  Au56  1  0.41535212  0.33070421  0.46875000  1
  Au  Au57  1  0.41535212  0.83070421  0.46875000  1
  Au  Au58  1  0.91535212  0.33070421  0.46875000  1
  Au  Au59  1  0.91535212  0.83070421  0.46875000  1
  Au  Au60  1  0.33070335  0.41535169  0.53125001  1
  Au  Au61  1  0.33070335  0.91535169  0.53125001  1
  Au  Au62  1  0.83070335  0.41535169  0.53125001  1
  Au  Au63  1  0.83070335  0.91535169  0.53125001  1
  Au  Au64  1  0.08464833  0.41535171  0.53125000  1
  Au  Au65  1  0.08464833  0.91535171  0.53125000  1
  Au  Au66  1  0.58464833  0.41535171  0.53125000  1
  Au  Au67  1  0.58464833  0.91535171  0.53125000  1
  Au  Au68  1  0.08464829  0.16929660  0.53124999  1
  Au  Au69  1  0.08464829  0.66929660  0.53124999  1
  Au  Au70  1  0.58464829  0.16929660  0.53124999  1
  Au  Au71  1  0.58464829  0.66929660  0.53124999  1
  Au  Au72  1  0.16929583  0.08464787  0.59374999  1
  Au  Au73  1  0.16929583  0.58464787  0.59374999  1
  Au  Au74  1  0.66929583  0.08464787  0.59374999  1
  Au  Au75  1  0.66929583  0.58464787  0.59374999  1
  Au  Au76  1  0.41535207  0.08464791  0.59374999  1
  Au  Au77  1  0.41535207  0.58464791  0.59374999  1
  Au  Au78  1  0.91535207  0.08464791  0.59374999  1
  Au  Au79  1  0.91535207  0.58464791  0.59374999  1
  Au  Au80  1  0.41535212  0.33070421  0.59375000  1
  Au  Au81  1  0.41535212  0.83070421  0.59375000  1
  Au  Au82  1  0.91535212  0.33070421  0.59375000  1
  Au  Au83  1  0.91535212  0.83070421  0.59375000  1
  Au  Au84  1  0.33159357  0.41579667  0.65790564  1
  Au  Au85  1  0.33159378  0.91579698  0.65790567  1
  Au  Au86  1  0.83159362  0.41579648  0.65790565  1
  Au  Au87  1  0.83159366  0.91579715  0.65790567  1
  Au  Au88  1  0.08420307  0.41579667  0.65790569  1
  Au  Au89  1  0.08420330  0.91579704  0.65790566  1
  Au  Au90  1  0.58420306  0.41579668  0.65790565  1
  Au  Au91  1  0.58420329  0.91579703  0.65790570  1
  Au  Au92  1  0.08420293  0.16840642  0.65790566  1
  Au  Au93  1  0.08420307  0.66840624  0.65790562  1
  Au  Au94  1  0.58420323  0.16840624  0.65790563  1
  Au  Au95  1  0.58420300  0.66840646  0.65790563  1
