# generated using pymatgen
data_CuAu3
_symmetry_space_group_name_H-M   'P 1'
_cell_length_a   9.55775420
_cell_length_b   9.95687469
_cell_length_c   63.23463501
_cell_angle_alpha   149.99999803
_cell_angle_beta   89.99998945
_cell_angle_gamma   90.00000390
_symmetry_Int_Tables_number   1
_chemical_formula_structural   CuAu3
_chemical_formula_sum   'Cu16 Au48'
_cell_volume   3008.87360894
_cell_formula_units_Z   16
loop_
 _symmetry_equiv_pos_site_id
 _symmetry_equiv_pos_as_xyz
  1  'x, y, z'
loop_
 _atom_site_type_symbol
 _atom_site_label
 _atom_site_symmetry_multiplicity
 _atom_site_fract_x
 _atom_site_fract_y
 _atom_site_fract_z
 _atom_site_occupancy
  Cu  Cu0  1  0.37499999  0.66666670  0.38636364  1
  Cu  Cu1  1  0.87499999  0.66666670  0.38636364  1
  Cu  Cu2  1  0.12499997  0.33333328  0.38636363  1
  Cu  Cu3  1  0.62499997  0.33333328  0.38636363  1
  Cu  Cu4  1  0.37499999  0.66666670  0.47727273  1
  Cu  Cu5  1  0.87499999  0.66666670  0.47727273  1
  Cu  Cu6  1  0.12499997  0.33333328  0.47727272  1
  Cu  Cu7  1  0.62499997  0.33333328  0.47727272  1
  Cu  Cu8  1  0.37499999  0.66666670  0.56818182  1
  Cu  Cu9  1  0.87499999  0.66666670  0.56818182  1
  Cu  Cu10  1  0.12499997  0.33333328  0.56818181  1
  Cu  Cu11  1  0.62499997  0.33333328  0.56818181  1
  Cu  Cu12  1  0.37500005  0.64236285  0.65183828  1
  Cu  Cu13  1  0.87499989  0.64236311  0.65183831  1
  Cu  Cu14  1  0.12500005  0.27785136  0.65183786  1
  Cu  Cu15  1  0.62499986  0.27785229  0.65183797  1
  Au  Au16  1  0.12500005  0.83070426  0.34019205  1
  Au  Au17  1  0.62500005  0.83070426  0.34019205  1
  Au  Au18  1  0.12500003  0.83070417  0.38636364  1
  Au  Au19  1  0.62500003  0.83070417  0.38636364  1
  Au  Au20  1  0.12499998  0.33859158  0.34162612  1
  Au  Au21  1  0.62499998  0.33859158  0.34162612  1
  Au  Au22  1  0.37499996  0.16929661  0.34162636  1
  Au  Au23  1  0.87499996  0.16929661  0.34162636  1
  Au  Au24  1  0.37499999  0.16929659  0.38636363  1
  Au  Au25  1  0.87499999  0.16929659  0.38636363  1
  Au  Au26  1  0.37500003  0.66140681  0.34019184  1
  Au  Au27  1  0.87500003  0.66140681  0.34019184  1
  Au  Au28  1  0.12500005  0.83070426  0.43110115  1
  Au  Au29  1  0.62500005  0.83070426  0.43110115  1
  Au  Au30  1  0.12500003  0.83070417  0.47727273  1
  Au  Au31  1  0.62500003  0.83070417  0.47727273  1
  Au  Au32  1  0.12499998  0.33859158  0.43253521  1
  Au  Au33  1  0.62499998  0.33859158  0.43253521  1
  Au  Au34  1  0.37499996  0.16929661  0.43253545  1
  Au  Au35  1  0.87499996  0.16929661  0.43253545  1
  Au  Au36  1  0.37499999  0.16929659  0.47727272  1
  Au  Au37  1  0.87499999  0.16929659  0.47727272  1
  Au  Au38  1  0.37500003  0.66140681  0.43110093  1
  Au  Au39  1  0.87500003  0.66140681  0.43110093  1
  Au  Au40  1  0.12500005  0.83070426  0.52201024  1
  Au  Au41  1  0.62500005  0.83070426  0.52201024  1
  Au  Au42  1  0.12500003  0.83070417  0.56818182  1
  Au  Au43  1  0.62500003  0.83070417  0.56818182  1
  Au  Au44  1  0.12499998  0.33859158  0.52344430  1
  Au  Au45  1  0.62499998  0.33859158  0.52344430  1
  Au  Au46  1  0.37499996  0.16929661  0.52344454  1
  Au  Au47  1  0.87499996  0.16929661  0.52344454  1
  Au  Au48  1  0.37499999  0.16929659  0.56818181  1
  Au  Au49  1  0.87499999  0.16929659  0.56818181  1
  Au  Au50  1  0.37500003  0.66140681  0.52201002  1
  Au  Au51  1  0.87500003  0.66140681  0.52201002  1
  Au  Au52  1  0.12500005  0.83967797  0.61572247  1
  Au  Au53  1  0.62499993  0.83967982  0.61572264  1
  Au  Au54  1  0.12500013  0.79972329  0.65501218  1
  Au  Au55  1  0.62499986  0.79972225  0.65501200  1
  Au  Au56  1  0.12500010  0.36604041  0.62166595  1
  Au  Au57  1  0.62499991  0.36604084  0.62166586  1
  Au  Au58  1  0.37499990  0.22227392  0.62166390  1
  Au  Au59  1  0.87500000  0.22227492  0.62166401  1
  Au  Au60  1  0.37500002  0.15540089  0.65501211  1
  Au  Au61  1  0.87499993  0.15539971  0.65501195  1
  Au  Au62  1  0.37500038  0.68327527  0.61572710  1
  Au  Au63  1  0.87499965  0.68327526  0.61572708  1
