# generated using pymatgen
data_SrCuGe
_symmetry_space_group_name_H-M   'P 1'
_cell_length_a   8.59249802
_cell_length_b   8.59248898
_cell_length_c   37.03046792
_cell_angle_alpha   90.00002327
_cell_angle_beta   89.99998293
_cell_angle_gamma   119.99996426
_symmetry_Int_Tables_number   1
_chemical_formula_structural   SrCuGe
_chemical_formula_sum   'Sr12 Cu12 Ge12'
_cell_volume   2367.70947785
_cell_formula_units_Z   12
loop_
 _symmetry_equiv_pos_site_id
 _symmetry_equiv_pos_as_xyz
  1  'x, y, z'
loop_
 _atom_site_type_symbol
 _atom_site_label
 _atom_site_symmetry_multiplicity
 _atom_site_fract_x
 _atom_site_fract_y
 _atom_site_fract_z
 _atom_site_occupancy
  Sr  Sr0  1  0.16666707  0.33333336  0.58696873  1
  Sr  Sr1  1  0.16666707  0.83333336  0.58696873  1
  Sr  Sr2  1  0.66666707  0.33333336  0.58696873  1
  Sr  Sr3  1  0.66666707  0.83333336  0.58696873  1
  Sr  Sr4  1  0.16666707  0.33333336  0.46196873  1
  Sr  Sr5  1  0.16666707  0.83333336  0.46196873  1
  Sr  Sr6  1  0.66666707  0.33333336  0.46196873  1
  Sr  Sr7  1  0.66666707  0.83333336  0.46196873  1
  Sr  Sr8  1  0.16666707  0.33333336  0.33696873  1
  Sr  Sr9  1  0.16666707  0.83333336  0.33696873  1
  Sr  Sr10  1  0.66666707  0.33333336  0.33696873  1
  Sr  Sr11  1  0.66666707  0.83333336  0.33696873  1
  Cu  Cu12  1  0.49999580  0.49999972  0.64873296  1
  Cu  Cu13  1  0.49999073  0.00000070  0.64873305  1
  Cu  Cu14  1  0.99999512  0.50000489  0.64873425  1
  Cu  Cu15  1  0.99999800  0.99999770  0.64873064  1
  Cu  Cu16  1  0.49999997  0.49999998  0.52446870  1
  Cu  Cu17  1  0.49999997  0.99999998  0.52446870  1
  Cu  Cu18  1  0.99999997  0.49999998  0.52446870  1
  Cu  Cu19  1  0.99999997  0.99999998  0.52446870  1
  Cu  Cu20  1  0.49999997  0.49999998  0.39946870  1
  Cu  Cu21  1  0.49999997  0.99999998  0.39946870  1
  Cu  Cu22  1  0.99999997  0.49999998  0.39946870  1
  Cu  Cu23  1  0.99999997  0.99999998  0.39946870  1
  Ge  Ge24  1  0.33333823  0.16666523  0.64683592  1
  Ge  Ge25  1  0.33333844  0.66666687  0.64684217  1
  Ge  Ge26  1  0.83333936  0.16666596  0.64683530  1
  Ge  Ge27  1  0.83334087  0.66666733  0.64683821  1
  Ge  Ge28  1  0.33333403  0.16666666  0.52446877  1
  Ge  Ge29  1  0.33333403  0.66666666  0.52446877  1
  Ge  Ge30  1  0.83333403  0.16666666  0.52446877  1
  Ge  Ge31  1  0.83333403  0.66666666  0.52446877  1
  Ge  Ge32  1  0.33333403  0.16666666  0.39946877  1
  Ge  Ge33  1  0.33333403  0.66666666  0.39946877  1
  Ge  Ge34  1  0.83333403  0.16666666  0.39946877  1
  Ge  Ge35  1  0.83333403  0.66666666  0.39946877  1
