# generated using pymatgen
data_Ca2CuAg
_symmetry_space_group_name_H-M   'P 1'
_cell_length_a   8.30320513
_cell_length_b   12.20728240
_cell_length_c   36.69208073
_cell_angle_alpha   67.93122386
_cell_angle_beta   90.00000221
_cell_angle_gamma   90.00000430
_symmetry_Int_Tables_number   1
_chemical_formula_structural   Ca2CuAg
_chemical_formula_sum   'Ca24 Cu12 Ag12'
_cell_volume   3446.60862917
_cell_formula_units_Z   12
loop_
 _symmetry_equiv_pos_site_id
 _symmetry_equiv_pos_as_xyz
  1  'x, y, z'
loop_
 _atom_site_type_symbol
 _atom_site_label
 _atom_site_symmetry_multiplicity
 _atom_site_fract_x
 _atom_site_fract_y
 _atom_site_fract_z
 _atom_site_occupancy
  Ca  Ca0  1  0.49999999  0.85840528  0.42394934  1
  Ca  Ca1  1  0.99999999  0.85840528  0.42394934  1
  Ca  Ca2  1  0.25000000  0.64207616  0.38849048  1
  Ca  Ca3  1  0.75000000  0.64207616  0.38849048  1
  Ca  Ca4  1  0.24999998  0.35840519  0.36144936  1
  Ca  Ca5  1  0.74999998  0.35840519  0.36144936  1
  Ca  Ca6  1  0.49999999  0.14207641  0.32599044  1
  Ca  Ca7  1  0.99999999  0.14207641  0.32599044  1
  Ca  Ca8  1  0.49999999  0.85840528  0.54894934  1
  Ca  Ca9  1  0.99999999  0.85840528  0.54894934  1
  Ca  Ca10  1  0.25000000  0.64207616  0.51349048  1
  Ca  Ca11  1  0.75000000  0.64207616  0.51349048  1
  Ca  Ca12  1  0.24999998  0.35840519  0.48644936  1
  Ca  Ca13  1  0.74999998  0.35840519  0.48644936  1
  Ca  Ca14  1  0.49999999  0.14207641  0.45099044  1
  Ca  Ca15  1  0.99999999  0.14207641  0.45099044  1
  Ca  Ca16  1  0.50000012  0.86409144  0.66706619  1
  Ca  Ca17  1  0.99999994  0.86409154  0.66706613  1
  Ca  Ca18  1  0.25000030  0.63845514  0.63835751  1
  Ca  Ca19  1  0.74999975  0.63845543  0.63835748  1
  Ca  Ca20  1  0.24999998  0.35840519  0.61144936  1
  Ca  Ca21  1  0.74999998  0.35840519  0.61144936  1
  Ca  Ca22  1  0.49999999  0.14207641  0.57599044  1
  Ca  Ca23  1  0.99999999  0.14207641  0.57599044  1
  Cu  Cu24  1  0.25000001  0.93106021  0.35236747  1
  Cu  Cu25  1  0.75000001  0.93106021  0.35236747  1
  Cu  Cu26  1  0.00000000  0.43106007  0.41486749  1
  Cu  Cu27  1  0.50000000  0.43106007  0.41486749  1
  Cu  Cu28  1  0.25000001  0.93106021  0.47736747  1
  Cu  Cu29  1  0.75000001  0.93106021  0.47736747  1
  Cu  Cu30  1  0.00000000  0.43106007  0.53986749  1
  Cu  Cu31  1  0.50000000  0.43106007  0.53986749  1
  Cu  Cu32  1  0.25000001  0.93106021  0.60236747  1
  Cu  Cu33  1  0.75000001  0.93106021  0.60236747  1
  Cu  Cu34  1  0.99999999  0.43873777  0.66175336  1
  Cu  Cu35  1  0.49999999  0.43873815  0.66175328  1
  Ag  Ag36  1  0.00000001  0.56845867  0.33519267  1
  Ag  Ag37  1  0.50000001  0.56845867  0.33519267  1
  Ag  Ag38  1  0.25000001  0.06845800  0.39769275  1
  Ag  Ag39  1  0.75000001  0.06845800  0.39769275  1
  Ag  Ag40  1  0.00000001  0.56845867  0.46019267  1
  Ag  Ag41  1  0.50000001  0.56845867  0.46019267  1
  Ag  Ag42  1  0.25000001  0.06845800  0.52269275  1
  Ag  Ag43  1  0.75000001  0.06845800  0.52269275  1
  Ag  Ag44  1  0.00000001  0.56845867  0.58519267  1
  Ag  Ag45  1  0.50000001  0.56845867  0.58519267  1
  Ag  Ag46  1  0.25000006  0.07232672  0.64637269  1
  Ag  Ag47  1  0.74999996  0.07232511  0.64637313  1
