# generated using pymatgen
data_Zr6CuBi2
_symmetry_space_group_name_H-M   'P 1'
_cell_length_a   13.67844206
_cell_length_b   8.78712078
_cell_length_c   46.23803938
_cell_angle_alpha   63.99166423
_cell_angle_beta   90.00000700
_cell_angle_gamma   38.89267746
_symmetry_Int_Tables_number   1
_chemical_formula_structural   Zr6CuBi2
_chemical_formula_sum   'Zr24 Cu4 Bi8'
_cell_volume   2497.36287050
_cell_formula_units_Z   4
loop_
 _symmetry_equiv_pos_site_id
 _symmetry_equiv_pos_as_xyz
  1  'x, y, z'
loop_
 _atom_site_type_symbol
 _atom_site_label
 _atom_site_symmetry_multiplicity
 _atom_site_fract_x
 _atom_site_fract_y
 _atom_site_fract_z
 _atom_site_occupancy
  Zr  Zr0  1  0.39436088  0.21127883  0.38054158  1
  Zr  Zr1  1  0.99999988  0.39435976  0.36528483  1
  Zr  Zr2  1  0.60563873  0.39436192  0.36528466  1
  Zr  Zr3  1  0.76242106  0.47515723  0.40021838  1
  Zr  Zr4  1  0.00000147  0.76242156  0.37627968  1
  Zr  Zr5  1  0.23757859  0.76241927  0.37627988  1
  Zr  Zr6  1  0.39436088  0.21127883  0.46387491  1
  Zr  Zr7  1  0.99999988  0.39435976  0.44861816  1
  Zr  Zr8  1  0.60563873  0.39436192  0.44861799  1
  Zr  Zr9  1  0.76242106  0.47515723  0.48355171  1
  Zr  Zr10  1  0.00000147  0.76242156  0.45961302  1
  Zr  Zr11  1  0.23757859  0.76241927  0.45961322  1
  Zr  Zr12  1  0.39436088  0.21127883  0.54720824  1
  Zr  Zr13  1  0.99999988  0.39435976  0.53195149  1
  Zr  Zr14  1  0.60563873  0.39436192  0.53195132  1
  Zr  Zr15  1  0.76242106  0.47515723  0.56688505  1
  Zr  Zr16  1  0.00000147  0.76242156  0.54294635  1
  Zr  Zr17  1  0.23757859  0.76241927  0.54294655  1
  Zr  Zr18  1  0.37541418  0.24912378  0.62352137  1
  Zr  Zr19  1  0.99759782  0.41338487  0.60879571  1
  Zr  Zr20  1  0.58895814  0.41330720  0.60882195  1
  Zr  Zr21  1  0.75904747  0.48180695  0.63427030  1
  Zr  Zr22  1  0.00399772  0.74875695  0.62137579  1
  Zr  Zr23  1  0.24740604  0.74848518  0.62135207  1
  Cu  Cu24  1  0.00000020  0.99999986  0.39814816  1
  Cu  Cu25  1  0.00000020  0.99999986  0.48148149  1
  Cu  Cu26  1  0.00000020  0.99999986  0.56481483  1
  Cu  Cu27  1  0.03538805  0.92939307  0.65019899  1
  Bi  Bi28  1  0.33333473  0.99999895  0.35648157  1
  Bi  Bi29  1  0.66666447  0.00000263  0.35648127  1
  Bi  Bi30  1  0.33333473  0.99999895  0.43981490  1
  Bi  Bi31  1  0.66666447  0.00000263  0.43981460  1
  Bi  Bi32  1  0.33333473  0.99999895  0.52314823  1
  Bi  Bi33  1  0.66666447  0.00000263  0.52314793  1
  Bi  Bi34  1  0.38037580  0.90521157  0.62063702  1
  Bi  Bi35  1  0.71430541  0.90535133  0.62059511  1
