# generated using pymatgen
data_Ca2CuRh
_symmetry_space_group_name_H-M   'P 1'
_cell_length_a   10.01977947
_cell_length_b   10.01977540
_cell_length_c   35.42529734
_cell_angle_alpha   89.99999445
_cell_angle_beta   89.99998908
_cell_angle_gamma   90.00004872
_symmetry_Int_Tables_number   1
_chemical_formula_structural   Ca2CuRh
_chemical_formula_sum   'Ca32 Cu16 Rh16'
_cell_volume   3556.55602081
_cell_formula_units_Z   16
loop_
 _symmetry_equiv_pos_site_id
 _symmetry_equiv_pos_as_xyz
  1  'x, y, z'
loop_
 _atom_site_type_symbol
 _atom_site_label
 _atom_site_symmetry_multiplicity
 _atom_site_fract_x
 _atom_site_fract_y
 _atom_site_fract_z
 _atom_site_occupancy
  Ca  Ca0  1  0.49999965  0.25000006  0.31625191  1
  Ca  Ca1  1  0.49999965  0.75000006  0.31625191  1
  Ca  Ca2  1  0.99999965  0.25000006  0.31625191  1
  Ca  Ca3  1  0.99999965  0.75000006  0.31625191  1
  Ca  Ca4  1  0.24999902  0.00000000  0.31625189  1
  Ca  Ca5  1  0.24999902  0.50000000  0.31625189  1
  Ca  Ca6  1  0.74999902  0.00000000  0.31625189  1
  Ca  Ca7  1  0.74999902  0.50000000  0.31625189  1
  Ca  Ca8  1  0.25000009  0.49999993  0.41625160  1
  Ca  Ca9  1  0.25000009  0.99999993  0.41625160  1
  Ca  Ca10  1  0.75000009  0.49999993  0.41625160  1
  Ca  Ca11  1  0.75000009  0.99999993  0.41625160  1
  Ca  Ca12  1  0.49999961  0.25000004  0.41625164  1
  Ca  Ca13  1  0.49999961  0.75000004  0.41625164  1
  Ca  Ca14  1  0.99999961  0.25000004  0.41625164  1
  Ca  Ca15  1  0.99999961  0.75000004  0.41625164  1
  Ca  Ca16  1  0.49999965  0.25000006  0.51625191  1
  Ca  Ca17  1  0.49999965  0.75000006  0.51625191  1
  Ca  Ca18  1  0.99999965  0.25000006  0.51625191  1
  Ca  Ca19  1  0.99999965  0.75000006  0.51625191  1
  Ca  Ca20  1  0.24999902  0.00000000  0.51625189  1
  Ca  Ca21  1  0.24999902  0.50000000  0.51625189  1
  Ca  Ca22  1  0.74999902  0.00000000  0.51625189  1
  Ca  Ca23  1  0.74999902  0.50000000  0.51625189  1
  Ca  Ca24  1  0.25000803  0.49999970  0.61475267  1
  Ca  Ca25  1  0.25002810  0.99999934  0.61474755  1
  Ca  Ca26  1  0.74998897  0.49999930  0.61475317  1
  Ca  Ca27  1  0.74996872  0.99999934  0.61474801  1
  Ca  Ca28  1  0.50000016  0.25003664  0.61475138  1
  Ca  Ca29  1  0.50000001  0.74996482  0.61475145  1
  Ca  Ca30  1  0.99999905  0.25005899  0.61474910  1
  Ca  Ca31  1  0.99999923  0.74994274  0.61474921  1
  Cu  Cu32  1  0.49999999  0.49999998  0.36625171  1
  Cu  Cu33  1  0.49999999  0.99999998  0.36625171  1
  Cu  Cu34  1  0.99999999  0.49999998  0.36625171  1
  Cu  Cu35  1  0.99999999  0.99999998  0.36625171  1
  Cu  Cu36  1  0.24999956  0.25000000  0.46625174  1
  Cu  Cu37  1  0.24999956  0.75000000  0.46625174  1
  Cu  Cu38  1  0.74999956  0.25000000  0.46625174  1
  Cu  Cu39  1  0.74999956  0.75000000  0.46625174  1
  Cu  Cu40  1  0.49999999  0.49999998  0.56625171  1
  Cu  Cu41  1  0.49999999  0.99999998  0.56625171  1
  Cu  Cu42  1  0.99999999  0.49999998  0.56625171  1
  Cu  Cu43  1  0.99999999  0.99999998  0.56625171  1
  Cu  Cu44  1  0.25000090  0.25000689  0.65921010  1
  Cu  Cu45  1  0.25000143  0.74999324  0.65921013  1
  Cu  Cu46  1  0.75000023  0.25000715  0.65920992  1
  Cu  Cu47  1  0.74999987  0.74999317  0.65920988  1
  Rh  Rh48  1  0.49999914  0.00000003  0.46625171  1
  Rh  Rh49  1  0.49999914  0.50000003  0.46625171  1
  Rh  Rh50  1  0.99999914  0.00000003  0.46625171  1
  Rh  Rh51  1  0.99999914  0.50000003  0.46625171  1
  Rh  Rh52  1  0.24999954  0.24999996  0.36625174  1
  Rh  Rh53  1  0.24999954  0.74999996  0.36625174  1
  Rh  Rh54  1  0.74999954  0.24999996  0.36625174  1
  Rh  Rh55  1  0.74999954  0.74999996  0.36625174  1
  Rh  Rh56  1  0.50000126  0.99999926  0.64785382  1
  Rh  Rh57  1  0.50000144  0.49999975  0.64784800  1
  Rh  Rh58  1  0.99999997  0.99999934  0.64786858  1
  Rh  Rh59  1  0.99999961  0.49999942  0.64784978  1
  Rh  Rh60  1  0.24999954  0.24999996  0.56625174  1
  Rh  Rh61  1  0.24999954  0.74999996  0.56625174  1
  Rh  Rh62  1  0.74999954  0.24999996  0.56625174  1
  Rh  Rh63  1  0.74999954  0.74999996  0.56625174  1
