# generated using pymatgen
data_Zr5CuBi3
_symmetry_space_group_name_H-M   'P 1'
_cell_length_a   15.36240825
_cell_length_b   10.69437856
_cell_length_c   53.77595805
_cell_angle_alpha   56.03303982
_cell_angle_beta   89.99999787
_cell_angle_gamma   44.09008518
_symmetry_Int_Tables_number   1
_chemical_formula_structural   Zr5CuBi3
_chemical_formula_sum   'Zr30 Cu6 Bi18'
_cell_volume   3663.66817358
_cell_formula_units_Z   6
loop_
 _symmetry_equiv_pos_site_id
 _symmetry_equiv_pos_as_xyz
  1  'x, y, z'
loop_
 _atom_site_type_symbol
 _atom_site_label
 _atom_site_symmetry_multiplicity
 _atom_site_fract_x
 _atom_site_fract_y
 _atom_site_fract_z
 _atom_site_occupancy
  Zr  Zr0  1  0.99762503  0.27121806  0.59134140  1
  Zr  Zr1  1  0.26081800  0.47836363  0.56965243  1
  Zr  Zr2  1  0.73112707  0.27127530  0.59135422  1
  Zr  Zr3  1  0.98319077  0.75486770  0.59248542  1
  Zr  Zr4  1  0.73273751  0.53446052  0.61640308  1
  Zr  Zr5  1  0.26205692  0.75465094  0.59251722  1
  Zr  Zr6  1  0.33489728  0.99585495  0.59588625  1
  Zr  Zr7  1  0.66918025  0.99589492  0.59589112  1
  Zr  Zr8  1  0.60307493  0.07810492  0.64378671  1
  Zr  Zr9  1  0.31899537  0.07777160  0.64381801  1
  Zr  Zr10  1  0.00000002  0.26081833  0.48271300  1
  Zr  Zr11  1  0.26081800  0.47836363  0.45854132  1
  Zr  Zr12  1  0.73918189  0.26081794  0.48271307  1
  Zr  Zr13  1  0.99999996  0.73918196  0.48511692  1
  Zr  Zr14  1  0.73918154  0.52163644  0.50928866  1
  Zr  Zr15  1  0.26081833  0.73918171  0.48511695  1
  Zr  Zr16  1  0.33333319  0.00000018  0.48391498  1
  Zr  Zr17  1  0.66666672  0.99999993  0.48391499  1
  Zr  Zr18  1  0.66666680  0.99999982  0.53947056  1
  Zr  Zr19  1  0.33333313  0.00000018  0.53947050  1
  Zr  Zr20  1  0.00000002  0.26081833  0.37160189  1
  Zr  Zr21  1  0.26081800  0.47836363  0.34743021  1
  Zr  Zr22  1  0.73918189  0.26081794  0.37160196  1
  Zr  Zr23  1  0.99999996  0.73918196  0.37400581  1
  Zr  Zr24  1  0.73918154  0.52163644  0.39817755  1
  Zr  Zr25  1  0.26081833  0.73918171  0.37400584  1
  Zr  Zr26  1  0.33333319  0.00000018  0.37280387  1
  Zr  Zr27  1  0.66666672  0.99999993  0.37280388  1
  Zr  Zr28  1  0.66666680  0.99999982  0.42835945  1
  Zr  Zr29  1  0.33333313  0.00000018  0.42835939  1
  Cu  Cu30  1  0.03291034  0.93429761  0.60327857  1
  Cu  Cu31  1  0.00197234  0.99611082  0.64602411  1
  Cu  Cu32  1  0.99999940  0.00000021  0.48391495  1
  Cu  Cu33  1  0.99999929  0.00000035  0.53947047  1
  Cu  Cu34  1  0.99999940  0.00000021  0.37280384  1
  Cu  Cu35  1  0.99999929  0.00000035  0.42835936  1
  Bi  Bi36  1  0.99999915  0.61443708  0.55453320  1
  Bi  Bi37  1  0.63631223  0.72734732  0.65345322  1
  Bi  Bi38  1  0.38556352  0.61443556  0.55453337  1
  Bi  Bi39  1  0.01471961  0.35122662  0.64045184  1
  Bi  Bi40  1  0.35495814  0.29007268  0.65408742  1
  Bi  Bi41  1  0.63399083  0.35130391  0.64046489  1
  Bi  Bi42  1  0.99999915  0.61443708  0.44342209  1
  Bi  Bi43  1  0.61443700  0.77112668  0.53712324  1
  Bi  Bi44  1  0.38556352  0.61443556  0.44342226  1
  Bi  Bi45  1  0.99999922  0.38556406  0.52440776  1
  Bi  Bi46  1  0.38556383  0.22887302  0.54181788  1
  Bi  Bi47  1  0.61443626  0.38556293  0.52440787  1
  Bi  Bi48  1  0.99999915  0.61443708  0.33231098  1
  Bi  Bi49  1  0.61443700  0.77112668  0.42601213  1
  Bi  Bi50  1  0.38556352  0.61443556  0.33231115  1
  Bi  Bi51  1  0.99999922  0.38556406  0.41329665  1
  Bi  Bi52  1  0.38556383  0.22887302  0.43070677  1
  Bi  Bi53  1  0.61443626  0.38556293  0.41329676  1
