# generated using pymatgen
data_Y2ZnPt
_symmetry_space_group_name_H-M   'P 1'
_cell_length_a   10.07684222
_cell_length_b   10.07684282
_cell_length_c   33.03913720
_cell_angle_alpha   85.62698966
_cell_angle_beta   85.62699562
_cell_angle_gamma   59.99999390
_symmetry_Int_Tables_number   1
_chemical_formula_structural   Y2ZnPt
_chemical_formula_sum   'Y24 Zn12 Pt12'
_cell_volume   2894.13226305
_cell_formula_units_Z   12
loop_
 _symmetry_equiv_pos_site_id
 _symmetry_equiv_pos_as_xyz
  1  'x, y, z'
loop_
 _atom_site_type_symbol
 _atom_site_label
 _atom_site_symmetry_multiplicity
 _atom_site_fract_x
 _atom_site_fract_y
 _atom_site_fract_z
 _atom_site_occupancy
  Pt  Pt0  1  0.97103354  0.30763880  0.64785181  1
  Pt  Pt1  1  0.97103355  0.80763880  0.64785180  1
  Pt  Pt2  1  0.47103355  0.30763880  0.64785180  1
  Pt  Pt3  1  0.47103354  0.80763881  0.64785180  1
  Pt  Pt4  1  0.14057932  0.49218750  0.54724141  1
  Pt  Pt5  1  0.14057932  0.99218750  0.54724141  1
  Pt  Pt6  1  0.64057932  0.49218750  0.54724141  1
  Pt  Pt7  1  0.64057932  0.99218750  0.54724141  1
  Pt  Pt8  1  0.26375190  0.17968750  0.40048159  1
  Pt  Pt9  1  0.26375190  0.67968750  0.40048159  1
  Pt  Pt10  1  0.76375190  0.17968750  0.40048159  1
  Pt  Pt11  1  0.76375190  0.67968750  0.40048159  1
  Y  Y12  1  0.14189451  0.47589642  0.63386864  1
  Y  Y13  1  0.14189450  0.97589642  0.63386864  1
  Y  Y14  1  0.64189450  0.47589642  0.63386864  1
  Y  Y15  1  0.64189450  0.97589642  0.63386864  1
  Y  Y16  1  0.48332423  0.32031251  0.56652351  1
  Y  Y17  1  0.48332423  0.82031251  0.56652351  1
  Y  Y18  1  0.98332423  0.32031251  0.56652351  1
  Y  Y19  1  0.98332423  0.82031251  0.56652351  1
  Y  Y20  1  0.29491053  0.16406249  0.49314360  1
  Y  Y21  1  0.29491053  0.66406249  0.49314360  1
  Y  Y22  1  0.79491053  0.16406249  0.49314360  1
  Y  Y23  1  0.79491053  0.66406249  0.49314360  1
  Y  Y24  1  0.10649682  0.00781251  0.44301949  1
  Y  Y25  1  0.10649682  0.50781251  0.44301949  1
  Y  Y26  1  0.60649682  0.00781251  0.44301949  1
  Y  Y27  1  0.60649682  0.50781251  0.44301949  1
  Y  Y28  1  0.42100698  0.35156249  0.38119949  1
  Y  Y29  1  0.42100698  0.85156249  0.38119949  1
  Y  Y30  1  0.92100698  0.35156249  0.38119949  1
  Y  Y31  1  0.92100698  0.85156249  0.38119949  1
  Y  Y32  1  0.23259327  0.19531251  0.30781958  1
  Y  Y33  1  0.23259327  0.69531251  0.30781958  1
  Y  Y34  1  0.73259327  0.19531251  0.30781958  1
  Y  Y35  1  0.73259327  0.69531251  0.30781958  1
  Zn  Zn36  1  0.32606916  0.14843750  0.58580561  1
  Zn  Zn37  1  0.32606916  0.64843750  0.58580561  1
  Zn  Zn38  1  0.82606916  0.14843750  0.58580561  1
  Zn  Zn39  1  0.82606916  0.64843750  0.58580561  1
  Zn  Zn40  1  0.45216561  0.33593750  0.47386150  1
  Zn  Zn41  1  0.45216561  0.83593750  0.47386150  1
  Zn  Zn42  1  0.95216561  0.33593750  0.47386150  1
  Zn  Zn43  1  0.95216561  0.83593750  0.47386150  1
  Zn  Zn44  1  0.07533820  0.02343750  0.35035748  1
  Zn  Zn45  1  0.07533820  0.52343750  0.35035748  1
  Zn  Zn46  1  0.57533820  0.02343750  0.35035748  1
  Zn  Zn47  1  0.57533820  0.52343750  0.35035748  1
