# generated using pymatgen
data_Ag3Pd
_symmetry_space_group_name_H-M   'P 1'
_cell_length_a   9.61891214
_cell_length_b   10.13922100
_cell_length_c   64.39269722
_cell_angle_alpha   149.99999511
_cell_angle_beta   90.00000006
_cell_angle_gamma   90.00000074
_symmetry_Int_Tables_number   1
_chemical_formula_structural   Ag3Pd
_chemical_formula_sum   'Ag48 Pd16'
_cell_volume   3140.05483691
_cell_formula_units_Z   16
loop_
 _symmetry_equiv_pos_site_id
 _symmetry_equiv_pos_as_xyz
  1  'x, y, z'
loop_
 _atom_site_type_symbol
 _atom_site_label
 _atom_site_symmetry_multiplicity
 _atom_site_fract_x
 _atom_site_fract_y
 _atom_site_fract_z
 _atom_site_occupancy
  Ag  Ag0  1  0.37500000  0.66413793  0.34056427  1
  Ag  Ag1  1  0.87500000  0.66413793  0.34056427  1
  Ag  Ag2  1  0.37500000  0.16793104  0.38636364  1
  Ag  Ag3  1  0.87500000  0.16793104  0.38636364  1
  Ag  Ag4  1  0.37500001  0.16793100  0.34125391  1
  Ag  Ag5  1  0.87500001  0.16793100  0.34125391  1
  Ag  Ag6  1  0.12500001  0.33586195  0.34125390  1
  Ag  Ag7  1  0.62500001  0.33586195  0.34125390  1
  Ag  Ag8  1  0.12500000  0.83206903  0.38636364  1
  Ag  Ag9  1  0.62500000  0.83206903  0.38636364  1
  Ag  Ag10  1  0.12499999  0.83206905  0.34056428  1
  Ag  Ag11  1  0.62499999  0.83206905  0.34056428  1
  Ag  Ag12  1  0.37500000  0.66413793  0.43147336  1
  Ag  Ag13  1  0.87500000  0.66413793  0.43147336  1
  Ag  Ag14  1  0.37500000  0.16793104  0.47727273  1
  Ag  Ag15  1  0.87500000  0.16793104  0.47727273  1
  Ag  Ag16  1  0.37500001  0.16793100  0.43216300  1
  Ag  Ag17  1  0.87500001  0.16793100  0.43216300  1
  Ag  Ag18  1  0.12500001  0.33586195  0.43216299  1
  Ag  Ag19  1  0.62500001  0.33586195  0.43216299  1
  Ag  Ag20  1  0.12500000  0.83206903  0.47727273  1
  Ag  Ag21  1  0.62500000  0.83206903  0.47727273  1
  Ag  Ag22  1  0.12499999  0.83206905  0.43147337  1
  Ag  Ag23  1  0.62499999  0.83206905  0.43147337  1
  Ag  Ag24  1  0.37500000  0.66413793  0.52238245  1
  Ag  Ag25  1  0.87500000  0.66413793  0.52238245  1
  Ag  Ag26  1  0.37500000  0.16793104  0.56818182  1
  Ag  Ag27  1  0.87500000  0.16793104  0.56818182  1
  Ag  Ag28  1  0.37500001  0.16793100  0.52307210  1
  Ag  Ag29  1  0.87500001  0.16793100  0.52307210  1
  Ag  Ag30  1  0.12500001  0.33586195  0.52307208  1
  Ag  Ag31  1  0.62500001  0.33586195  0.52307208  1
  Ag  Ag32  1  0.12500000  0.83206903  0.56818182  1
  Ag  Ag33  1  0.62500000  0.83206903  0.56818182  1
  Ag  Ag34  1  0.12499999  0.83206905  0.52238246  1
  Ag  Ag35  1  0.62499999  0.83206905  0.52238246  1
  Ag  Ag36  1  0.37499964  0.67328821  0.61436441  1
  Ag  Ag37  1  0.87500036  0.67328820  0.61436441  1
  Ag  Ag38  1  0.37500003  0.16155345  0.65703559  1
  Ag  Ag39  1  0.87499998  0.16155344  0.65703558  1
  Ag  Ag40  1  0.37500002  0.18212838  0.61603472  1
  Ag  Ag41  1  0.87499997  0.18212842  0.61603472  1
  Ag  Ag42  1  0.12499999  0.34425591  0.61603460  1
  Ag  Ag43  1  0.62500001  0.34425475  0.61603451  1
  Ag  Ag44  1  0.12500000  0.81583929  0.65703238  1
  Ag  Ag45  1  0.62500000  0.81583994  0.65703251  1
  Ag  Ag46  1  0.12500000  0.83475274  0.61436751  1
  Ag  Ag47  1  0.62499999  0.83475182  0.61436738  1
  Pd  Pd48  1  0.12500001  0.33333335  0.38636364  1
  Pd  Pd49  1  0.62500001  0.33333335  0.38636364  1
  Pd  Pd50  1  0.37499999  0.66666665  0.38636363  1
  Pd  Pd51  1  0.87499999  0.66666665  0.38636363  1
  Pd  Pd52  1  0.12500001  0.33333335  0.47727273  1
  Pd  Pd53  1  0.62500001  0.33333335  0.47727273  1
  Pd  Pd54  1  0.37499999  0.66666665  0.47727272  1
  Pd  Pd55  1  0.87499999  0.66666665  0.47727272  1
  Pd  Pd56  1  0.12500001  0.33333335  0.56818182  1
  Pd  Pd57  1  0.62500001  0.33333335  0.56818182  1
  Pd  Pd58  1  0.37499999  0.66666665  0.56818182  1
  Pd  Pd59  1  0.87499999  0.66666665  0.56818182  1
  Pd  Pd60  1  0.12500002  0.30037234  0.65436586  1
  Pd  Pd61  1  0.62500000  0.30037215  0.65436584  1
  Pd  Pd62  1  0.37499985  0.64763722  0.65436407  1
  Pd  Pd63  1  0.87500014  0.64763725  0.65436407  1
