# generated using pymatgen
data_Sc2CuPd
_symmetry_space_group_name_H-M   'P 1'
_cell_length_a   9.40703444
_cell_length_b   9.40703420
_cell_length_c   39.91064501
_cell_angle_alpha   89.99992514
_cell_angle_beta   89.99995877
_cell_angle_gamma   90.00001858
_symmetry_Int_Tables_number   1
_chemical_formula_structural   Sc2CuPd
_chemical_formula_sum   'Sc32 Cu16 Pd16'
_cell_volume   3531.78455980
_cell_formula_units_Z   16
loop_
 _symmetry_equiv_pos_site_id
 _symmetry_equiv_pos_as_xyz
  1  'x, y, z'
loop_
 _atom_site_type_symbol
 _atom_site_label
 _atom_site_symmetry_multiplicity
 _atom_site_fract_x
 _atom_site_fract_y
 _atom_site_fract_z
 _atom_site_occupancy
  Cu  Cu0  1  0.00000001  0.00000002  0.39583334  1
  Cu  Cu1  1  0.00000001  0.50000002  0.39583334  1
  Cu  Cu2  1  0.50000001  0.00000002  0.39583334  1
  Cu  Cu3  1  0.50000001  0.50000002  0.39583334  1
  Cu  Cu4  1  0.25000003  0.25000001  0.47916666  1
  Cu  Cu5  1  0.25000003  0.75000001  0.47916666  1
  Cu  Cu6  1  0.75000003  0.25000001  0.47916666  1
  Cu  Cu7  1  0.75000003  0.75000001  0.47916666  1
  Cu  Cu8  1  0.00000001  0.00000002  0.56250001  1
  Cu  Cu9  1  0.00000001  0.50000002  0.56250001  1
  Cu  Cu10  1  0.50000001  0.00000002  0.56250001  1
  Cu  Cu11  1  0.50000001  0.50000002  0.56250001  1
  Cu  Cu12  1  0.24999971  0.25000055  0.64459210  1
  Cu  Cu13  1  0.25000074  0.74999921  0.64459229  1
  Cu  Cu14  1  0.75000039  0.24999848  0.64459196  1
  Cu  Cu15  1  0.74999994  0.75000009  0.64459228  1
  Pd  Pd16  1  0.00000000  0.49999999  0.47916666  1
  Pd  Pd17  1  0.00000000  0.99999999  0.47916666  1
  Pd  Pd18  1  0.50000000  0.49999999  0.47916666  1
  Pd  Pd19  1  0.50000000  0.99999999  0.47916666  1
  Pd  Pd20  1  0.25000001  0.24999998  0.39583333  1
  Pd  Pd21  1  0.25000001  0.74999998  0.39583333  1
  Pd  Pd22  1  0.75000001  0.24999998  0.39583333  1
  Pd  Pd23  1  0.75000001  0.74999998  0.39583333  1
  Pd  Pd24  1  0.00000024  0.49999852  0.64078125  1
  Pd  Pd25  1  0.99999951  0.00000008  0.64078091  1
  Pd  Pd26  1  0.49999945  0.49999942  0.64078155  1
  Pd  Pd27  1  0.50000184  0.99999943  0.64078114  1
  Pd  Pd28  1  0.25000001  0.24999998  0.56250000  1
  Pd  Pd29  1  0.25000001  0.74999998  0.56250000  1
  Pd  Pd30  1  0.75000001  0.24999998  0.56250000  1
  Pd  Pd31  1  0.75000001  0.74999998  0.56250000  1
  Sc  Sc32  1  0.24999999  0.50000000  0.35416668  1
  Sc  Sc33  1  0.24999999  1.00000000  0.35416668  1
  Sc  Sc34  1  0.74999999  0.50000000  0.35416668  1
  Sc  Sc35  1  0.74999999  1.00000000  0.35416668  1
  Sc  Sc36  1  0.49999997  0.25000001  0.35416669  1
  Sc  Sc37  1  0.49999997  0.75000001  0.35416669  1
  Sc  Sc38  1  0.99999997  0.25000001  0.35416669  1
  Sc  Sc39  1  0.99999997  0.75000001  0.35416669  1
  Sc  Sc40  1  0.49999999  0.25000004  0.43749997  1
  Sc  Sc41  1  0.49999999  0.75000004  0.43749997  1
  Sc  Sc42  1  0.99999999  0.25000004  0.43749997  1
  Sc  Sc43  1  0.99999999  0.75000004  0.43749997  1
  Sc  Sc44  1  0.25000001  0.49999995  0.43750000  1
  Sc  Sc45  1  0.25000001  0.99999995  0.43750000  1
  Sc  Sc46  1  0.75000001  0.49999995  0.43750000  1
  Sc  Sc47  1  0.75000001  0.99999995  0.43750000  1
  Sc  Sc48  1  0.24999999  0.50000000  0.52083334  1
  Sc  Sc49  1  0.24999999  1.00000000  0.52083334  1
  Sc  Sc50  1  0.74999999  0.50000000  0.52083334  1
  Sc  Sc51  1  0.74999999  1.00000000  0.52083334  1
  Sc  Sc52  1  0.49999997  0.25000001  0.52083336  1
  Sc  Sc53  1  0.49999997  0.75000001  0.52083336  1
  Sc  Sc54  1  0.99999997  0.25000001  0.52083336  1
  Sc  Sc55  1  0.99999997  0.75000001  0.52083336  1
  Sc  Sc56  1  0.49999934  0.24999731  0.60450417  1
  Sc  Sc57  1  0.49999950  0.75000296  0.60450415  1
  Sc  Sc58  1  0.00000086  0.24999924  0.60450443  1
  Sc  Sc59  1  0.99999963  0.75000128  0.60450393  1
  Sc  Sc60  1  0.24999954  0.49999862  0.60450455  1
  Sc  Sc61  1  0.24999675  0.99999985  0.60450406  1
  Sc  Sc62  1  0.75000141  0.50000034  0.60450435  1
  Sc  Sc63  1  0.75000037  0.00000044  0.60450494  1
