# generated using pymatgen
data_YAlCu
_symmetry_space_group_name_H-M   'P 1'
_cell_length_a   12.34368546
_cell_length_b   8.19904822
_cell_length_c   48.64897984
_cell_angle_alpha   60.36600580
_cell_angle_beta   90.00000631
_cell_angle_gamma   41.17074884
_symmetry_Int_Tables_number   1
_chemical_formula_structural   YAlCu
_chemical_formula_sum   'Y12 Al12 Cu12'
_cell_volume   2139.79391563
_cell_formula_units_Z   12
loop_
 _symmetry_equiv_pos_site_id
 _symmetry_equiv_pos_as_xyz
  1  'x, y, z'
loop_
 _atom_site_type_symbol
 _atom_site_label
 _atom_site_symmetry_multiplicity
 _atom_site_fract_x
 _atom_site_fract_y
 _atom_site_fract_z
 _atom_site_occupancy
  Y  Y0  1  0.41358560  0.58641508  0.36779874  1
  Y  Y1  1  0.58641364  0.82717201  0.34773567  1
  Y  Y2  1  0.00000076  0.58641289  0.36779893  1
  Y  Y3  1  0.41358560  0.58641508  0.45113208  1
  Y  Y4  1  0.58641364  0.82717201  0.43106900  1
  Y  Y5  1  0.00000076  0.58641289  0.45113226  1
  Y  Y6  1  0.41358560  0.58641508  0.53446541  1
  Y  Y7  1  0.58641364  0.82717201  0.51440233  1
  Y  Y8  1  0.00000076  0.58641289  0.53446559  1
  Y  Y9  1  0.41008342  0.58118462  0.61831032  1
  Y  Y10  1  0.58641364  0.82717201  0.59773567  1
  Y  Y11  1  0.00894072  0.58075927  0.61832842  1
  Al  Al12  1  0.76487692  0.23512319  0.35540640  1
  Al  Al13  1  0.23512287  0.52975413  0.41418716  1
  Al  Al14  1  0.00000017  0.23512275  0.35540644  1
  Al  Al15  1  0.76487692  0.23512319  0.43873973  1
  Al  Al16  1  0.23512287  0.52975413  0.49752049  1
  Al  Al17  1  0.00000017  0.23512275  0.43873977  1
  Al  Al18  1  0.76487692  0.23512319  0.52207307  1
  Al  Al19  1  0.23512287  0.52975413  0.58085382  1
  Al  Al20  1  0.00000017  0.23512275  0.52207310  1
  Al  Al21  1  0.75989571  0.23525512  0.60558221  1
  Al  Al22  1  0.21807899  0.56403797  0.66109333  1
  Al  Al23  1  0.00453780  0.23601907  0.60553239  1
  Cu  Cu24  1  0.66666647  0.99999993  0.37500001  1
  Cu  Cu25  1  0.33333362  0.99999992  0.37500001  1
  Cu  Cu26  1  0.99999994  0.00000012  0.41666666  1
  Cu  Cu27  1  0.66666647  0.99999993  0.45833334  1
  Cu  Cu28  1  0.33333362  0.99999992  0.45833334  1
  Cu  Cu29  1  0.99999994  0.00000012  0.49999999  1
  Cu  Cu30  1  0.66666647  0.99999993  0.54166667  1
  Cu  Cu31  1  0.33333362  0.99999992  0.54166667  1
  Cu  Cu32  1  0.99999994  0.00000012  0.58333332  1
  Cu  Cu33  1  0.64918622  0.04021731  0.61917191  1
  Cu  Cu34  1  0.31062597  0.04033756  0.61915282  1
  Cu  Cu35  1  0.99486556  0.01055530  0.66252467  1
