# generated using pymatgen
data_Y2PdRh
_symmetry_space_group_name_H-M   'P 1'
_cell_length_a   9.91598451
_cell_length_b   14.02331972
_cell_length_c   39.66393819
_cell_angle_alpha   89.99999918
_cell_angle_beta   90.00001138
_cell_angle_gamma   89.99999947
_symmetry_Int_Tables_number   1
_chemical_formula_structural   Y2PdRh
_chemical_formula_sum   'Y48 Pd24 Rh24'
_cell_volume   5515.46976280
_cell_formula_units_Z   24
loop_
 _symmetry_equiv_pos_site_id
 _symmetry_equiv_pos_as_xyz
  1  'x, y, z'
loop_
 _atom_site_type_symbol
 _atom_site_label
 _atom_site_symmetry_multiplicity
 _atom_site_fract_x
 _atom_site_fract_y
 _atom_site_fract_z
 _atom_site_occupancy
  Pd  Pd0  1  0.12500001  0.49999999  0.65215197  1
  Pd  Pd1  1  0.12500002  0.00000000  0.65215197  1
  Pd  Pd2  1  0.62500002  0.50000000  0.65215197  1
  Pd  Pd3  1  0.62500001  1.00000000  0.65215197  1
  Pd  Pd4  1  0.37500000  0.25000000  0.59375000  1
  Pd  Pd5  1  0.37500000  0.75000000  0.59375000  1
  Pd  Pd6  1  0.87500000  0.25000000  0.59375000  1
  Pd  Pd7  1  0.87500000  0.75000000  0.59375000  1
  Pd  Pd8  1  0.12500000  0.50000000  0.53125000  1
  Pd  Pd9  1  0.12500000  1.00000000  0.53125000  1
  Pd  Pd10  1  0.62500000  0.50000000  0.53125000  1
  Pd  Pd11  1  0.62500000  1.00000000  0.53125000  1
  Pd  Pd12  1  0.37500000  0.25000000  0.46875000  1
  Pd  Pd13  1  0.37500000  0.75000000  0.46875000  1
  Pd  Pd14  1  0.87500000  0.25000000  0.46875000  1
  Pd  Pd15  1  0.87500000  0.75000000  0.46875000  1
  Pd  Pd16  1  0.12500000  0.50000000  0.40625000  1
  Pd  Pd17  1  0.12500000  1.00000000  0.40625000  1
  Pd  Pd18  1  0.62500000  0.50000000  0.40625000  1
  Pd  Pd19  1  0.62500000  1.00000000  0.40625000  1
  Pd  Pd20  1  0.37500000  0.25000000  0.34375000  1
  Pd  Pd21  1  0.37500000  0.75000000  0.34375000  1
  Pd  Pd22  1  0.87500000  0.25000000  0.34375000  1
  Pd  Pd23  1  0.87500000  0.75000000  0.34375000  1
  Rh  Rh24  1  0.37500000  0.00000000  0.59375000  1
  Rh  Rh25  1  0.37500000  0.50000000  0.59375000  1
  Rh  Rh26  1  0.87500000  0.00000000  0.59375000  1
  Rh  Rh27  1  0.87500000  0.50000000  0.59375000  1
  Rh  Rh28  1  0.12500001  0.25000000  0.64896220  1
  Rh  Rh29  1  0.12500002  0.75000000  0.64896220  1
  Rh  Rh30  1  0.62500001  0.25000000  0.64896220  1
  Rh  Rh31  1  0.62500002  0.75000000  0.64896220  1
  Rh  Rh32  1  0.37500000  0.00000000  0.46875000  1
  Rh  Rh33  1  0.37500000  0.50000000  0.46875000  1
  Rh  Rh34  1  0.87500000  0.00000000  0.46875000  1
  Rh  Rh35  1  0.87500000  0.50000000  0.46875000  1
  Rh  Rh36  1  0.12500000  0.25000000  0.53125000  1
  Rh  Rh37  1  0.12500000  0.75000000  0.53125000  1
  Rh  Rh38  1  0.62500000  0.25000000  0.53125000  1
  Rh  Rh39  1  0.62500000  0.75000000  0.53125000  1
  Rh  Rh40  1  0.37500000  0.00000000  0.34375000  1
  Rh  Rh41  1  0.37500000  0.50000000  0.34375000  1
  Rh  Rh42  1  0.87500000  0.00000000  0.34375000  1
  Rh  Rh43  1  0.87500000  0.50000000  0.34375000  1
  Rh  Rh44  1  0.12500000  0.25000000  0.40625000  1
  Rh  Rh45  1  0.12500000  0.75000000  0.40625000  1
  Rh  Rh46  1  0.62500000  0.25000000  0.40625000  1
  Rh  Rh47  1  0.62500000  0.75000000  0.40625000  1
  Y  Y48  1  0.12500000  0.12500000  0.59375000  1
  Y  Y49  1  0.12500000  0.62500000  0.59375000  1
  Y  Y50  1  0.62500000  0.12500000  0.59375000  1
  Y  Y51  1  0.62500000  0.62500000  0.59375000  1
  Y  Y52  1  0.37500003  0.12648091  0.65594715  1
  Y  Y53  1  0.37500003  0.62648091  0.65594714  1
  Y  Y54  1  0.87500003  0.12648091  0.65594714  1
  Y  Y55  1  0.87500003  0.62648091  0.65594714  1
  Y  Y56  1  0.37500003  0.37351909  0.65594714  1
  Y  Y57  1  0.37500003  0.87351909  0.65594715  1
  Y  Y58  1  0.87500003  0.37351909  0.65594715  1
  Y  Y59  1  0.87500003  0.87351909  0.65594715  1
  Y  Y60  1  0.12500000  0.37500000  0.59375000  1
  Y  Y61  1  0.12500000  0.87500000  0.59375000  1
  Y  Y62  1  0.62500000  0.37500000  0.59375000  1
  Y  Y63  1  0.62500000  0.87500000  0.59375000  1
  Y  Y64  1  0.12500000  0.12500000  0.46875000  1
  Y  Y65  1  0.12500000  0.62500000  0.46875000  1
  Y  Y66  1  0.62500000  0.12500000  0.46875000  1
  Y  Y67  1  0.62500000  0.62500000  0.46875000  1
  Y  Y68  1  0.37500000  0.12500000  0.53125000  1
  Y  Y69  1  0.37500000  0.62500000  0.53125000  1
  Y  Y70  1  0.87500000  0.12500000  0.53125000  1
  Y  Y71  1  0.87500000  0.62500000  0.53125000  1
  Y  Y72  1  0.37500000  0.37500000  0.53125000  1
  Y  Y73  1  0.37500000  0.87500000  0.53125000  1
  Y  Y74  1  0.87500000  0.37500000  0.53125000  1
  Y  Y75  1  0.87500000  0.87500000  0.53125000  1
  Y  Y76  1  0.12500000  0.37500000  0.46875000  1
  Y  Y77  1  0.12500000  0.87500000  0.46875000  1
  Y  Y78  1  0.62500000  0.37500000  0.46875000  1
  Y  Y79  1  0.62500000  0.87500000  0.46875000  1
  Y  Y80  1  0.12500000  0.12500000  0.34375000  1
  Y  Y81  1  0.12500000  0.62500000  0.34375000  1
  Y  Y82  1  0.62500000  0.12500000  0.34375000  1
  Y  Y83  1  0.62500000  0.62500000  0.34375000  1
  Y  Y84  1  0.37500000  0.12500000  0.40625000  1
  Y  Y85  1  0.37500000  0.62500000  0.40625000  1
  Y  Y86  1  0.87500000  0.12500000  0.40625000  1
  Y  Y87  1  0.87500000  0.62500000  0.40625000  1
  Y  Y88  1  0.37500000  0.37500000  0.40625000  1
  Y  Y89  1  0.37500000  0.87500000  0.40625000  1
  Y  Y90  1  0.87500000  0.37500000  0.40625000  1
  Y  Y91  1  0.87500000  0.87500000  0.40625000  1
  Y  Y92  1  0.12500000  0.37500000  0.34375000  1
  Y  Y93  1  0.12500000  0.87500000  0.34375000  1
  Y  Y94  1  0.62500000  0.37500000  0.34375000  1
  Y  Y95  1  0.62500000  0.87500000  0.34375000  1
