# generated using pymatgen
data_Sr2PdPt
_symmetry_space_group_name_H-M   'P 1'
_cell_length_a   10.65713517
_cell_length_b   10.65713542
_cell_length_c   34.94175496
_cell_angle_alpha   85.62699642
_cell_angle_beta   85.62699394
_cell_angle_gamma   60.00000037
_symmetry_Int_Tables_number   1
_chemical_formula_structural   Sr2PdPt
_chemical_formula_sum   'Sr24 Pd12 Pt12'
_cell_volume   3423.46929271
_cell_formula_units_Z   12
loop_
 _symmetry_equiv_pos_site_id
 _symmetry_equiv_pos_as_xyz
  1  'x, y, z'
loop_
 _atom_site_type_symbol
 _atom_site_label
 _atom_site_symmetry_multiplicity
 _atom_site_fract_x
 _atom_site_fract_y
 _atom_site_fract_z
 _atom_site_occupancy
  Pd  Pd0  1  0.18152743  0.18152740  0.66082412  1
  Pd  Pd1  1  0.18152742  0.68152738  0.66082412  1
  Pd  Pd2  1  0.68152744  0.18152738  0.66082412  1
  Pd  Pd3  1  0.68152745  0.68152739  0.66082412  1
  Pd  Pd4  1  0.36718750  0.36718750  0.54687500  1
  Pd  Pd5  1  0.36718750  0.86718750  0.54687500  1
  Pd  Pd6  1  0.86718750  0.36718750  0.54687500  1
  Pd  Pd7  1  0.86718750  0.86718750  0.54687500  1
  Pd  Pd8  1  0.05468750  0.05468750  0.42187500  1
  Pd  Pd9  1  0.05468750  0.55468750  0.42187500  1
  Pd  Pd10  1  0.55468750  0.05468750  0.42187500  1
  Pd  Pd11  1  0.55468750  0.55468750  0.42187500  1
  Pt  Pt12  1  0.02343750  0.02343750  0.60937500  1
  Pt  Pt13  1  0.02343750  0.52343750  0.60937500  1
  Pt  Pt14  1  0.52343750  0.02343750  0.60937500  1
  Pt  Pt15  1  0.52343750  0.52343750  0.60937500  1
  Pt  Pt16  1  0.21093750  0.21093750  0.48437500  1
  Pt  Pt17  1  0.21093750  0.71093750  0.48437500  1
  Pt  Pt18  1  0.71093750  0.21093750  0.48437500  1
  Pt  Pt19  1  0.71093750  0.71093750  0.48437500  1
  Pt  Pt20  1  0.39843750  0.39843750  0.35937500  1
  Pt  Pt21  1  0.39843750  0.89843750  0.35937500  1
  Pt  Pt22  1  0.89843750  0.39843750  0.35937500  1
  Pt  Pt23  1  0.89843750  0.89843750  0.35937500  1
  Sr  Sr24  1  0.35050642  0.35050633  0.64695877  1
  Sr  Sr25  1  0.35050639  0.85050631  0.64695877  1
  Sr  Sr26  1  0.85050637  0.35050631  0.64695878  1
  Sr  Sr27  1  0.85050640  0.85050634  0.64695877  1
  Sr  Sr28  1  0.19531250  0.19531250  0.57812500  1
  Sr  Sr29  1  0.19531250  0.69531250  0.57812500  1
  Sr  Sr30  1  0.69531250  0.19531250  0.57812500  1
  Sr  Sr31  1  0.69531250  0.69531250  0.57812500  1
  Sr  Sr32  1  0.03906250  0.03906250  0.51562500  1
  Sr  Sr33  1  0.03906250  0.53906250  0.51562500  1
  Sr  Sr34  1  0.53906250  0.03906250  0.51562500  1
  Sr  Sr35  1  0.53906250  0.53906250  0.51562500  1
  Sr  Sr36  1  0.38281250  0.38281250  0.45312500  1
  Sr  Sr37  1  0.38281250  0.88281250  0.45312500  1
  Sr  Sr38  1  0.88281250  0.38281250  0.45312500  1
  Sr  Sr39  1  0.88281250  0.88281250  0.45312500  1
  Sr  Sr40  1  0.22656250  0.22656250  0.39062500  1
  Sr  Sr41  1  0.22656250  0.72656250  0.39062500  1
  Sr  Sr42  1  0.72656250  0.22656250  0.39062500  1
  Sr  Sr43  1  0.72656250  0.72656250  0.39062500  1
  Sr  Sr44  1  0.07031250  0.07031250  0.32812500  1
  Sr  Sr45  1  0.07031250  0.57031250  0.32812500  1
  Sr  Sr46  1  0.57031250  0.07031250  0.32812500  1
  Sr  Sr47  1  0.57031250  0.57031250  0.32812500  1
