# generated using pymatgen
data_SrMgPt
_symmetry_space_group_name_H-M   'P 1'
_cell_length_a   8.92322688
_cell_length_b   9.84699865
_cell_length_c   40.68516349
_cell_angle_alpha   117.32784540
_cell_angle_beta   120.43812010
_cell_angle_gamma   76.55134331
_symmetry_Int_Tables_number   1
_chemical_formula_structural   SrMgPt
_chemical_formula_sum   'Sr12 Mg12 Pt12'
_cell_volume   2738.19227629
_cell_formula_units_Z   12
loop_
 _symmetry_equiv_pos_site_id
 _symmetry_equiv_pos_as_xyz
  1  'x, y, z'
loop_
 _atom_site_type_symbol
 _atom_site_label
 _atom_site_symmetry_multiplicity
 _atom_site_fract_x
 _atom_site_fract_y
 _atom_site_fract_z
 _atom_site_occupancy
  Sr  Sr0  1  0.02705398  0.32181393  0.48100848  1
  Sr  Sr1  1  0.52705389  0.17818610  0.63171649  1
  Sr  Sr2  1  0.98354957  0.65197761  0.67320703  1
  Sr  Sr3  1  0.47294565  0.82181388  0.64166311  1
  Sr  Sr4  1  0.02705398  0.32181393  0.36989737  1
  Sr  Sr5  1  0.52705389  0.17818610  0.52060538  1
  Sr  Sr6  1  0.97294565  0.67818605  0.57014891  1
  Sr  Sr7  1  0.47294565  0.82181388  0.53055200  1
  Sr  Sr8  1  0.02705398  0.32181393  0.25878626  1
  Sr  Sr9  1  0.52705389  0.17818610  0.40949427  1
  Sr  Sr10  1  0.97294565  0.67818605  0.45903779  1
  Sr  Sr11  1  0.47294565  0.82181388  0.41944088  1
  Mg  Mg12  1  0.13796679  0.93746674  0.56173800  1
  Mg  Mg13  1  0.69072105  0.56347718  0.68899532  1
  Mg  Mg14  1  0.87686475  0.03859019  0.70686456  1
  Mg  Mg15  1  0.36203295  0.43746673  0.58663424  1
  Mg  Mg16  1  0.13796679  0.93746674  0.45062689  1
  Mg  Mg17  1  0.63796664  0.56253328  0.57563426  1
  Mg  Mg18  1  0.86203278  0.06253327  0.60053050  1
  Mg  Mg19  1  0.36203295  0.43746673  0.47552312  1
  Mg  Mg20  1  0.13796679  0.93746674  0.33951578  1
  Mg  Mg21  1  0.63796664  0.56253328  0.46452315  1
  Mg  Mg22  1  0.86203278  0.06253327  0.48941939  1
  Mg  Mg23  1  0.36203295  0.43746673  0.36441201  1
  Pt  Pt24  1  0.28098729  0.61719172  0.54204305  1
  Pt  Pt25  1  0.79581712  0.83992013  0.72182892  1
  Pt  Pt26  1  0.71901227  0.38280829  0.62022544  1
  Pt  Pt27  1  0.21901219  0.11719172  0.53515693  1
  Pt  Pt28  1  0.28098729  0.61719172  0.43093194  1
  Pt  Pt29  1  0.78098739  0.88280830  0.62711157  1
  Pt  Pt30  1  0.71901227  0.38280829  0.50911433  1
  Pt  Pt31  1  0.21901219  0.11719172  0.42404582  1
  Pt  Pt32  1  0.28098729  0.61719172  0.31982083  1
  Pt  Pt33  1  0.78098739  0.88280830  0.51600046  1
  Pt  Pt34  1  0.71901227  0.38280829  0.39800322  1
  Pt  Pt35  1  0.21901219  0.11719172  0.31293470  1
