# generated using pymatgen
data_NaCd2Pd
_symmetry_space_group_name_H-M   'P 1'
_cell_length_a   9.78664258
_cell_length_b   9.78664759
_cell_length_c   34.60098733
_cell_angle_alpha   89.99999889
_cell_angle_beta   89.99998577
_cell_angle_gamma   90.00003794
_symmetry_Int_Tables_number   1
_chemical_formula_structural   NaCd2Pd
_chemical_formula_sum   'Na16 Cd32 Pd16'
_cell_volume   3314.02796679
_cell_formula_units_Z   16
loop_
 _symmetry_equiv_pos_site_id
 _symmetry_equiv_pos_as_xyz
  1  'x, y, z'
loop_
 _atom_site_type_symbol
 _atom_site_label
 _atom_site_symmetry_multiplicity
 _atom_site_fract_x
 _atom_site_fract_y
 _atom_site_fract_z
 _atom_site_occupancy
  Cd  Cd0  1  0.25000001  0.49999997  0.33173376  1
  Cd  Cd1  1  0.25000001  0.99999997  0.33173376  1
  Cd  Cd2  1  0.75000001  0.49999997  0.33173376  1
  Cd  Cd3  1  0.75000001  0.99999997  0.33173376  1
  Cd  Cd4  1  0.49999967  0.25000000  0.33173380  1
  Cd  Cd5  1  0.49999967  0.75000000  0.33173380  1
  Cd  Cd6  1  0.99999967  0.25000000  0.33173380  1
  Cd  Cd7  1  0.99999967  0.75000000  0.33173380  1
  Cd  Cd8  1  0.49999967  0.24999998  0.43173374  1
  Cd  Cd9  1  0.49999967  0.74999998  0.43173374  1
  Cd  Cd10  1  0.99999967  0.24999998  0.43173374  1
  Cd  Cd11  1  0.99999967  0.74999998  0.43173374  1
  Cd  Cd12  1  0.24999934  0.00000001  0.43173371  1
  Cd  Cd13  1  0.24999934  0.50000001  0.43173371  1
  Cd  Cd14  1  0.74999934  0.00000001  0.43173371  1
  Cd  Cd15  1  0.74999934  0.50000001  0.43173371  1
  Cd  Cd16  1  0.25000001  0.49999997  0.53173376  1
  Cd  Cd17  1  0.25000001  0.99999997  0.53173376  1
  Cd  Cd18  1  0.75000001  0.49999997  0.53173376  1
  Cd  Cd19  1  0.75000001  0.99999997  0.53173376  1
  Cd  Cd20  1  0.49999967  0.25000000  0.53173380  1
  Cd  Cd21  1  0.49999967  0.75000000  0.53173380  1
  Cd  Cd22  1  0.99999967  0.25000000  0.53173380  1
  Cd  Cd23  1  0.99999967  0.75000000  0.53173380  1
  Cd  Cd24  1  0.49999989  0.24999311  0.63413532  1
  Cd  Cd25  1  0.49999993  0.75000709  0.63413534  1
  Cd  Cd26  1  0.00000002  0.24999832  0.63413541  1
  Cd  Cd27  1  0.99999998  0.75000190  0.63413545  1
  Cd  Cd28  1  0.24999703  0.00000005  0.63413553  1
  Cd  Cd29  1  0.24999183  0.49999997  0.63413514  1
  Cd  Cd30  1  0.74999396  0.00000001  0.63413558  1
  Cd  Cd31  1  0.74999912  0.50000000  0.63413518  1
  Na  Na32  1  0.00000000  0.49999999  0.38173378  1
  Na  Na33  1  0.00000000  0.99999999  0.38173378  1
  Na  Na34  1  0.50000000  0.49999999  0.38173378  1
  Na  Na35  1  0.50000000  0.99999999  0.38173378  1
  Na  Na36  1  0.24999967  0.24999998  0.48173374  1
  Na  Na37  1  0.24999967  0.74999998  0.48173374  1
  Na  Na38  1  0.74999967  0.24999998  0.48173374  1
  Na  Na39  1  0.74999967  0.74999998  0.48173374  1
  Na  Na40  1  0.00000000  0.49999999  0.58173378  1
  Na  Na41  1  0.00000000  0.99999999  0.58173378  1
  Na  Na42  1  0.50000000  0.49999999  0.58173378  1
  Na  Na43  1  0.50000000  0.99999999  0.58173378  1
  Na  Na44  1  0.24999953  0.24999972  0.69808732  1
  Na  Na45  1  0.24999955  0.75000026  0.69808755  1
  Na  Na46  1  0.74999965  0.24999973  0.69808770  1
  Na  Na47  1  0.74999965  0.75000026  0.69808734  1
  Pd  Pd48  1  0.49999930  0.00000004  0.48173370  1
  Pd  Pd49  1  0.49999930  0.50000004  0.48173370  1
  Pd  Pd50  1  0.99999930  0.00000004  0.48173370  1
  Pd  Pd51  1  0.99999930  0.50000004  0.48173370  1
  Pd  Pd52  1  0.24999969  0.25000001  0.38173373  1
  Pd  Pd53  1  0.24999969  0.75000001  0.38173373  1
  Pd  Pd54  1  0.74999969  0.25000001  0.38173373  1
  Pd  Pd55  1  0.74999969  0.75000001  0.38173373  1
  Pd  Pd56  1  0.50000332  0.99999985  0.67259697  1
  Pd  Pd57  1  0.50000338  0.49999994  0.67259981  1
  Pd  Pd58  1  0.00000329  0.99999989  0.67259818  1
  Pd  Pd59  1  0.00000327  0.49999988  0.67259795  1
  Pd  Pd60  1  0.24999969  0.25000001  0.58173373  1
  Pd  Pd61  1  0.24999969  0.75000001  0.58173373  1
  Pd  Pd62  1  0.74999969  0.25000001  0.58173373  1
  Pd  Pd63  1  0.74999969  0.75000001  0.58173373  1
