# generated using pymatgen
data_YCuSn
_symmetry_space_group_name_H-M   'P 1'
_cell_length_a   9.19044724
_cell_length_b   8.67935317
_cell_length_c   41.35700917
_cell_angle_alpha   121.96780861
_cell_angle_beta   119.99997034
_cell_angle_gamma   74.64959174
_symmetry_Int_Tables_number   1
_chemical_formula_structural   YCuSn
_chemical_formula_sum   'Y12 Cu12 Sn12'
_cell_volume   2423.68822474
_cell_formula_units_Z   12
loop_
 _symmetry_equiv_pos_site_id
 _symmetry_equiv_pos_as_xyz
  1  'x, y, z'
loop_
 _atom_site_type_symbol
 _atom_site_label
 _atom_site_symmetry_multiplicity
 _atom_site_fract_x
 _atom_site_fract_y
 _atom_site_fract_z
 _atom_site_occupancy
  Y  Y0  1  0.49999997  0.50012593  0.35928804  1
  Y  Y1  1  0.99999997  0.50012593  0.35928804  1
  Y  Y2  1  0.00000006  0.00012602  0.41484359  1
  Y  Y3  1  0.50000006  0.00012602  0.41484359  1
  Y  Y4  1  0.49999997  0.50012593  0.47039915  1
  Y  Y5  1  0.99999997  0.50012593  0.47039915  1
  Y  Y6  1  0.00000006  0.00012602  0.52595470  1
  Y  Y7  1  0.50000006  0.00012602  0.52595470  1
  Y  Y8  1  0.49999997  0.50012593  0.58151026  1
  Y  Y9  1  0.99999997  0.50012593  0.58151026  1
  Y  Y10  1  0.99520567  0.99436786  0.63636470  1
  Y  Y11  1  0.49521336  0.99437111  0.63636510  1
  Cu  Cu12  1  0.33333335  0.81919560  0.43177725  1
  Cu  Cu13  1  0.83333335  0.81919560  0.43177725  1
  Cu  Cu14  1  0.16666672  0.31919592  0.41325877  1
  Cu  Cu15  1  0.66666672  0.31919592  0.41325877  1
  Cu  Cu16  1  0.33333335  0.81919560  0.54288836  1
  Cu  Cu17  1  0.83333335  0.81919560  0.54288836  1
  Cu  Cu18  1  0.16666672  0.31919592  0.52436988  1
  Cu  Cu19  1  0.66666672  0.31919592  0.52436988  1
  Cu  Cu20  1  0.28092108  0.74617909  0.64602159  1
  Cu  Cu21  1  0.78091644  0.74617167  0.64602172  1
  Cu  Cu22  1  0.16428284  0.17609431  0.61960216  1
  Cu  Cu23  1  0.66428577  0.17608134  0.61960139  1
  Sn  Sn24  1  0.16666661  0.73027992  0.34782368  1
  Sn  Sn25  1  0.66666661  0.73027992  0.34782368  1
  Sn  Sn26  1  0.33333329  0.23027861  0.36634201  1
  Sn  Sn27  1  0.83333329  0.23027861  0.36634201  1
  Sn  Sn28  1  0.16666661  0.73027992  0.45893479  1
  Sn  Sn29  1  0.66666661  0.73027992  0.45893479  1
  Sn  Sn30  1  0.33333329  0.23027861  0.47745312  1
  Sn  Sn31  1  0.83333329  0.23027861  0.47745312  1
  Sn  Sn32  1  0.16666661  0.73027992  0.57004590  1
  Sn  Sn33  1  0.66666661  0.73027992  0.57004590  1
  Sn  Sn34  1  0.33333329  0.23027861  0.58856423  1
  Sn  Sn35  1  0.83333329  0.23027861  0.58856423  1
