# generated using pymatgen
data_YAlCu
_symmetry_space_group_name_H-M   'P 1'
_cell_length_a   12.34368546
_cell_length_b   8.19904822
_cell_length_c   48.64897984
_cell_angle_alpha   60.36600580
_cell_angle_beta   90.00000631
_cell_angle_gamma   41.17074884
_symmetry_Int_Tables_number   1
_chemical_formula_structural   YAlCu
_chemical_formula_sum   'Y12 Al12 Cu12'
_cell_volume   2139.79391563
_cell_formula_units_Z   12
loop_
 _symmetry_equiv_pos_site_id
 _symmetry_equiv_pos_as_xyz
  1  'x, y, z'
loop_
 _atom_site_type_symbol
 _atom_site_label
 _atom_site_symmetry_multiplicity
 _atom_site_fract_x
 _atom_site_fract_y
 _atom_site_fract_z
 _atom_site_occupancy
  Y  Y0  1  0.41358560  0.58641508  0.38631726  1
  Y  Y1  1  0.58641364  0.82717201  0.36625418  1
  Y  Y2  1  0.00000076  0.58641289  0.38631744  1
  Y  Y3  1  0.41358560  0.58641508  0.46965059  1
  Y  Y4  1  0.58641364  0.82717201  0.44958752  1
  Y  Y5  1  0.00000076  0.58641289  0.46965078  1
  Y  Y6  1  0.41358560  0.58641508  0.55298393  1
  Y  Y7  1  0.58641364  0.82717201  0.53292085  1
  Y  Y8  1  0.00000076  0.58641289  0.55298411  1
  Y  Y9  1  0.40117281  0.60086178  0.63386704  1
  Y  Y10  1  0.57905039  0.84185977  0.61404209  1
  Y  Y11  1  0.99783001  0.60098977  0.63382995  1
  Al  Al12  1  0.76487692  0.23512319  0.37392492  1
  Al  Al13  1  0.23512287  0.52975413  0.34937234  1
  Al  Al14  1  0.00000017  0.23512275  0.37392496  1
  Al  Al15  1  0.76487692  0.23512319  0.45725825  1
  Al  Al16  1  0.23512287  0.52975413  0.43270567  1
  Al  Al17  1  0.00000017  0.23512275  0.45725829  1
  Al  Al18  1  0.76487692  0.23512319  0.54059159  1
  Al  Al19  1  0.23512287  0.52975413  0.51603901  1
  Al  Al20  1  0.00000017  0.23512275  0.54059162  1
  Al  Al21  1  0.76556542  0.24195569  0.62429523  1
  Al  Al22  1  0.24154619  0.51689001  0.60171451  1
  Al  Al23  1  0.99238224  0.24194000  0.62431379  1
  Cu  Cu24  1  0.66666647  0.99999993  0.39351852  1
  Cu  Cu25  1  0.33333362  0.99999992  0.39351853  1
  Cu  Cu26  1  0.99999994  0.00000012  0.35185184  1
  Cu  Cu27  1  0.66666647  0.99999993  0.47685186  1
  Cu  Cu28  1  0.33333362  0.99999992  0.47685186  1
  Cu  Cu29  1  0.99999994  0.00000012  0.43518517  1
  Cu  Cu30  1  0.66666647  0.99999993  0.56018519  1
  Cu  Cu31  1  0.33333362  0.99999992  0.56018519  1
  Cu  Cu32  1  0.99999994  0.00000012  0.51851851  1
  Cu  Cu33  1  0.65728983  0.03949040  0.63827667  1
  Cu  Cu34  1  0.30310811  0.03975674  0.63824320  1
  Cu  Cu35  1  0.99462476  0.01072298  0.60144450  1
