# generated using pymatgen
data_BaCuSb
_symmetry_space_group_name_H-M   'P 1'
_cell_length_a   9.39298212
_cell_length_b   10.80168174
_cell_length_c   42.26841409
_cell_angle_alpha   115.77208989
_cell_angle_beta   120.00001734
_cell_angle_gamma   77.44384476
_symmetry_Int_Tables_number   1
_chemical_formula_structural   BaCuSb
_chemical_formula_sum   'Ba12 Cu12 Sb12'
_cell_volume   3344.56694535
_cell_formula_units_Z   12
loop_
 _symmetry_equiv_pos_site_id
 _symmetry_equiv_pos_as_xyz
  1  'x, y, z'
loop_
 _atom_site_type_symbol
 _atom_site_label
 _atom_site_symmetry_multiplicity
 _atom_site_fract_x
 _atom_site_fract_y
 _atom_site_fract_z
 _atom_site_occupancy
  Ba  Ba0  1  0.00000001  0.99999989  0.39814813  1
  Ba  Ba1  1  0.50000001  0.99999989  0.39814813  1
  Ba  Ba2  1  0.50000000  0.50000009  0.34259260  1
  Ba  Ba3  1  1.00000000  0.50000009  0.34259260  1
  Ba  Ba4  1  0.00000001  0.99999989  0.50925924  1
  Ba  Ba5  1  0.50000001  0.99999989  0.50925924  1
  Ba  Ba6  1  0.50000000  0.50000009  0.45370371  1
  Ba  Ba7  1  1.00000000  0.50000009  0.45370371  1
  Ba  Ba8  1  0.99963564  0.02259915  0.62276108  1
  Ba  Ba9  1  0.49963562  0.02259910  0.62276106  1
  Ba  Ba10  1  0.50000000  0.50000009  0.56481483  1
  Ba  Ba11  1  1.00000000  0.50000009  0.56481483  1
  Cu  Cu12  1  0.33333332  0.24999990  0.35185184  1
  Cu  Cu13  1  0.83333332  0.24999990  0.35185184  1
  Cu  Cu14  1  0.16666669  0.75000011  0.44444447  1
  Cu  Cu15  1  0.66666669  0.75000011  0.44444447  1
  Cu  Cu16  1  0.33333332  0.24999990  0.46296295  1
  Cu  Cu17  1  0.83333332  0.24999990  0.46296295  1
  Cu  Cu18  1  0.16666669  0.75000011  0.55555558  1
  Cu  Cu19  1  0.66666669  0.75000011  0.55555558  1
  Cu  Cu20  1  0.33333332  0.24999990  0.57407406  1
  Cu  Cu21  1  0.83333332  0.24999990  0.57407406  1
  Cu  Cu22  1  0.13386244  0.75213913  0.65189362  1
  Cu  Cu23  1  0.63386242  0.75213908  0.65189363  1
  Sb  Sb24  1  0.16666659  0.24999995  0.38888889  1
  Sb  Sb25  1  0.66666659  0.24999995  0.38888889  1
  Sb  Sb26  1  0.33333339  0.75000006  0.40740741  1
  Sb  Sb27  1  0.83333339  0.75000006  0.40740741  1
  Sb  Sb28  1  0.16666659  0.24999995  0.50000000  1
  Sb  Sb29  1  0.66666659  0.24999995  0.50000000  1
  Sb  Sb30  1  0.33333339  0.75000006  0.51851852  1
  Sb  Sb31  1  0.83333339  0.75000006  0.51851852  1
  Sb  Sb32  1  0.16012474  0.25273693  0.60760936  1
  Sb  Sb33  1  0.66012484  0.25273693  0.60760936  1
  Sb  Sb34  1  0.32914692  0.77354807  0.62966162  1
  Sb  Sb35  1  0.82914707  0.77354808  0.62966159  1
