# generated using pymatgen
data_Y2CuAu
_symmetry_space_group_name_H-M   'P 1'
_cell_length_a   10.13954632
_cell_length_b   10.13954678
_cell_length_c   33.24472347
_cell_angle_alpha   85.62697417
_cell_angle_beta   85.62697182
_cell_angle_gamma   59.99997709
_symmetry_Int_Tables_number   1
_chemical_formula_structural   Y2CuAu
_chemical_formula_sum   'Y24 Cu12 Au12'
_cell_volume   2948.49528258
_cell_formula_units_Z   12
loop_
 _symmetry_equiv_pos_site_id
 _symmetry_equiv_pos_as_xyz
  1  'x, y, z'
loop_
 _atom_site_type_symbol
 _atom_site_label
 _atom_site_symmetry_multiplicity
 _atom_site_fract_x
 _atom_site_fract_y
 _atom_site_fract_z
 _atom_site_occupancy
  Au  Au0  1  0.02343750  0.39843750  0.35937500  1
  Au  Au1  1  0.02343750  0.89843750  0.35937500  1
  Au  Au2  1  0.52343750  0.39843750  0.35937500  1
  Au  Au3  1  0.52343750  0.89843750  0.35937500  1
  Au  Au4  1  0.33593750  0.21093750  0.48437500  1
  Au  Au5  1  0.33593750  0.71093750  0.48437500  1
  Au  Au6  1  0.83593750  0.21093750  0.48437500  1
  Au  Au7  1  0.83593750  0.71093750  0.48437500  1
  Au  Au8  1  0.14843750  0.02343750  0.60937500  1
  Au  Au9  1  0.14843750  0.52343750  0.60937500  1
  Au  Au10  1  0.64843750  0.02343750  0.60937500  1
  Au  Au11  1  0.64843750  0.52343750  0.60937500  1
  Cu  Cu12  1  0.17968750  0.05468750  0.42187500  1
  Cu  Cu13  1  0.17968750  0.55468750  0.42187500  1
  Cu  Cu14  1  0.67968750  0.05468750  0.42187500  1
  Cu  Cu15  1  0.67968750  0.55468750  0.42187500  1
  Cu  Cu16  1  0.49218750  0.36718750  0.54687500  1
  Cu  Cu17  1  0.49218750  0.86718750  0.54687500  1
  Cu  Cu18  1  0.99218750  0.36718750  0.54687500  1
  Cu  Cu19  1  0.99218750  0.86718750  0.54687500  1
  Cu  Cu20  1  0.30667519  0.18157841  0.66023893  1
  Cu  Cu21  1  0.30667518  0.68157839  0.66023890  1
  Cu  Cu22  1  0.80667548  0.18157830  0.66023888  1
  Cu  Cu23  1  0.80667549  0.68157820  0.66023891  1
  Y  Y24  1  0.19531250  0.07031248  0.32812500  1
  Y  Y25  1  0.19531250  0.57031248  0.32812500  1
  Y  Y26  1  0.69531250  0.07031248  0.32812500  1
  Y  Y27  1  0.69531250  0.57031248  0.32812500  1
  Y  Y28  1  0.35156250  0.22656252  0.39062500  1
  Y  Y29  1  0.35156250  0.72656252  0.39062500  1
  Y  Y30  1  0.85156250  0.22656252  0.39062500  1
  Y  Y31  1  0.85156250  0.72656252  0.39062500  1
  Y  Y32  1  0.00781250  0.38281248  0.45312500  1
  Y  Y33  1  0.00781250  0.88281248  0.45312500  1
  Y  Y34  1  0.50781250  0.38281248  0.45312500  1
  Y  Y35  1  0.50781250  0.88281248  0.45312500  1
  Y  Y36  1  0.16406250  0.03906252  0.51562500  1
  Y  Y37  1  0.16406250  0.53906252  0.51562500  1
  Y  Y38  1  0.66406250  0.03906252  0.51562500  1
  Y  Y39  1  0.66406250  0.53906252  0.51562500  1
  Y  Y40  1  0.32031250  0.19531248  0.57812500  1
  Y  Y41  1  0.32031250  0.69531248  0.57812500  1
  Y  Y42  1  0.82031250  0.19531248  0.57812500  1
  Y  Y43  1  0.82031250  0.69531248  0.57812500  1
  Y  Y44  1  0.47646096  0.35142008  0.64134786  1
  Y  Y45  1  0.47646092  0.85142022  0.64134773  1
  Y  Y46  1  0.97646083  0.35142021  0.64134768  1
  Y  Y47  1  0.97646080  0.85142021  0.64134779  1
