# generated using pymatgen
data_MgCuSn
_symmetry_space_group_name_H-M   'P 1'
_cell_length_a   8.92604891
_cell_length_b   8.92605124
_cell_length_c   32.79641205
_cell_angle_alpha   90.00000398
_cell_angle_beta   89.99997869
_cell_angle_gamma   59.99997783
_symmetry_Int_Tables_number   1
_chemical_formula_structural   MgCuSn
_chemical_formula_sum   'Mg12 Cu12 Sn12'
_cell_volume   2262.95285662
_cell_formula_units_Z   12
loop_
 _symmetry_equiv_pos_site_id
 _symmetry_equiv_pos_as_xyz
  1  'x, y, z'
loop_
 _atom_site_type_symbol
 _atom_site_label
 _atom_site_symmetry_multiplicity
 _atom_site_fract_x
 _atom_site_fract_y
 _atom_site_fract_z
 _atom_site_occupancy
  Cu  Cu0  1  0.05559151  0.38881569  0.64646841  1
  Cu  Cu1  1  0.05559150  0.88881568  0.64646847  1
  Cu  Cu2  1  0.55559150  0.38881568  0.64646850  1
  Cu  Cu3  1  0.55559150  0.88881569  0.64646840  1
  Cu  Cu4  1  0.38888893  0.22222219  0.53703704  1
  Cu  Cu5  1  0.38888893  0.72222219  0.53703704  1
  Cu  Cu6  1  0.88888893  0.22222219  0.53703704  1
  Cu  Cu7  1  0.88888893  0.72222219  0.53703704  1
  Cu  Cu8  1  0.22222226  0.05555552  0.42592593  1
  Cu  Cu9  1  0.22222226  0.55555552  0.42592593  1
  Cu  Cu10  1  0.72222226  0.05555552  0.42592593  1
  Cu  Cu11  1  0.72222226  0.55555552  0.42592593  1
  Mg  Mg12  1  0.38888885  0.22222233  0.62071581  1
  Mg  Mg13  1  0.38888881  0.72222201  0.62071585  1
  Mg  Mg14  1  0.88888853  0.22222230  0.62071583  1
  Mg  Mg15  1  0.88888875  0.72222223  0.62071582  1
  Mg  Mg16  1  0.22222222  0.05555560  0.50925926  1
  Mg  Mg17  1  0.22222222  0.55555560  0.50925926  1
  Mg  Mg18  1  0.72222222  0.05555560  0.50925926  1
  Mg  Mg19  1  0.72222222  0.55555560  0.50925926  1
  Mg  Mg20  1  0.05555555  0.38888893  0.39814814  1
  Mg  Mg21  1  0.05555555  0.88888893  0.39814814  1
  Mg  Mg22  1  0.55555555  0.38888893  0.39814814  1
  Mg  Mg23  1  0.55555555  0.88888893  0.39814814  1
  Sn  Sn24  1  0.05555552  0.38888888  0.56481482  1
  Sn  Sn25  1  0.05555552  0.88888888  0.56481482  1
  Sn  Sn26  1  0.55555552  0.38888888  0.56481482  1
  Sn  Sn27  1  0.55555552  0.88888888  0.56481482  1
  Sn  Sn28  1  0.38888885  0.22222221  0.45370371  1
  Sn  Sn29  1  0.38888885  0.72222221  0.45370371  1
  Sn  Sn30  1  0.88888885  0.22222221  0.45370371  1
  Sn  Sn31  1  0.88888885  0.72222221  0.45370371  1
  Sn  Sn32  1  0.22222219  0.05555554  0.34259260  1
  Sn  Sn33  1  0.22222219  0.55555554  0.34259260  1
  Sn  Sn34  1  0.72222219  0.05555554  0.34259260  1
  Sn  Sn35  1  0.72222219  0.55555554  0.34259260  1
