# generated using pymatgen
data_Y2ZnCu
_symmetry_space_group_name_H-M   'P 1'
_cell_length_a   10.10310151
_cell_length_b   10.10310184
_cell_length_c   33.12523632
_cell_angle_alpha   85.62710468
_cell_angle_beta   85.62708793
_cell_angle_gamma   60.00005116
_symmetry_Int_Tables_number   1
_chemical_formula_structural   Y2ZnCu
_chemical_formula_sum   'Y24 Zn12 Cu12'
_cell_volume   2916.81911031
_cell_formula_units_Z   12
loop_
 _symmetry_equiv_pos_site_id
 _symmetry_equiv_pos_as_xyz
  1  'x, y, z'
loop_
 _atom_site_type_symbol
 _atom_site_label
 _atom_site_symmetry_multiplicity
 _atom_site_fract_x
 _atom_site_fract_y
 _atom_site_fract_z
 _atom_site_occupancy
  Cu  Cu0  1  0.10063954  0.18056435  0.66254995  1
  Cu  Cu1  1  0.10063941  0.68056436  0.66254992  1
  Cu  Cu2  1  0.60063944  0.18056435  0.66254996  1
  Cu  Cu3  1  0.60063949  0.68056435  0.66254993  1
  Cu  Cu4  1  0.26484816  0.36718750  0.56058319  1
  Cu  Cu5  1  0.26484816  0.86718750  0.56058319  1
  Cu  Cu6  1  0.76484816  0.36718750  0.56058319  1
  Cu  Cu7  1  0.76484816  0.86718750  0.56058319  1
  Cu  Cu8  1  0.38802029  0.05468750  0.41382385  1
  Cu  Cu9  1  0.38802029  0.55468750  0.41382385  1
  Cu  Cu10  1  0.88802029  0.05468750  0.41382385  1
  Cu  Cu11  1  0.88802029  0.55468750  0.41382385  1
  Y  Y12  1  0.10759283  0.19531251  0.57986555  1
  Y  Y13  1  0.10759283  0.69531251  0.57986555  1
  Y  Y14  1  0.60759283  0.19531251  0.57986555  1
  Y  Y15  1  0.60759283  0.69531251  0.57986555  1
  Y  Y16  1  0.26900691  0.35016861  0.64533831  1
  Y  Y17  1  0.26900695  0.85016862  0.64533828  1
  Y  Y18  1  0.76900695  0.35016863  0.64533824  1
  Y  Y19  1  0.76900691  0.85016858  0.64533834  1
  Y  Y20  1  0.23368955  0.38281251  0.46792116  1
  Y  Y21  1  0.23368955  0.88281251  0.46792116  1
  Y  Y22  1  0.73368955  0.38281251  0.46792116  1
  Y  Y23  1  0.73368955  0.88281251  0.46792116  1
  Y  Y24  1  0.41917889  0.03906249  0.50648588  1
  Y  Y25  1  0.41917889  0.53906249  0.50648588  1
  Y  Y26  1  0.91917889  0.03906249  0.50648588  1
  Y  Y27  1  0.91917889  0.53906249  0.50648588  1
  Y  Y28  1  0.35686169  0.07031251  0.32116181  1
  Y  Y29  1  0.35686169  0.57031251  0.32116181  1
  Y  Y30  1  0.85686169  0.07031251  0.32116181  1
  Y  Y31  1  0.85686169  0.57031251  0.32116181  1
  Y  Y32  1  0.04527561  0.22656249  0.39454149  1
  Y  Y33  1  0.04527561  0.72656249  0.39454149  1
  Y  Y34  1  0.54527561  0.22656249  0.39454149  1
  Y  Y35  1  0.54527561  0.72656249  0.39454149  1
  Zn  Zn36  1  0.45033750  0.02343750  0.59914791  1
  Zn  Zn37  1  0.45033750  0.52343750  0.59914791  1
  Zn  Zn38  1  0.95033750  0.02343750  0.59914791  1
  Zn  Zn39  1  0.95033750  0.52343750  0.59914791  1
  Zn  Zn40  1  0.07643422  0.21093750  0.48720352  1
  Zn  Zn41  1  0.07643422  0.71093750  0.48720352  1
  Zn  Zn42  1  0.57643422  0.21093750  0.48720352  1
  Zn  Zn43  1  0.57643422  0.71093750  0.48720352  1
  Zn  Zn44  1  0.20253094  0.39843750  0.37525913  1
  Zn  Zn45  1  0.20253094  0.89843750  0.37525913  1
  Zn  Zn46  1  0.70253094  0.39843750  0.37525913  1
  Zn  Zn47  1  0.70253094  0.89843750  0.37525913  1
