# generated using pymatgen
data_Na3Pd
_symmetry_space_group_name_H-M   'P 1'
_cell_length_a   10.42896911
_cell_length_b   10.42897852
_cell_length_c   34.19367051
_cell_angle_alpha   85.62698877
_cell_angle_beta   85.62696900
_cell_angle_gamma   60.00000926
_symmetry_Int_Tables_number   1
_chemical_formula_structural   Na3Pd
_chemical_formula_sum   'Na36 Pd12'
_cell_volume   3208.26081577
_cell_formula_units_Z   12
loop_
 _symmetry_equiv_pos_site_id
 _symmetry_equiv_pos_as_xyz
  1  'x, y, z'
loop_
 _atom_site_type_symbol
 _atom_site_label
 _atom_site_symmetry_multiplicity
 _atom_site_fract_x
 _atom_site_fract_y
 _atom_site_fract_z
 _atom_site_occupancy
  Na  Na0  1  0.42027619  0.22656242  0.37188756  1
  Na  Na1  1  0.42027619  0.72656242  0.37188756  1
  Na  Na2  1  0.92027619  0.22656242  0.37188756  1
  Na  Na3  1  0.92027619  0.72656242  0.37188756  1
  Na  Na4  1  0.23186241  0.07031260  0.29850757  1
  Na  Na5  1  0.23186241  0.57031260  0.29850757  1
  Na  Na6  1  0.73186241  0.07031260  0.29850757  1
  Na  Na7  1  0.73186241  0.57031260  0.29850757  1
  Na  Na8  1  0.07753112  0.39843750  0.32934959  1
  Na  Na9  1  0.07753112  0.89843750  0.32934959  1
  Na  Na10  1  0.57753112  0.39843750  0.32934959  1
  Na  Na11  1  0.57753112  0.89843750  0.32934959  1
  Na  Na12  1  0.29417981  0.03906242  0.48383159  1
  Na  Na13  1  0.29417981  0.53906242  0.48383159  1
  Na  Na14  1  0.79417981  0.03906242  0.48383159  1
  Na  Na15  1  0.79417981  0.53906242  0.48383159  1
  Na  Na16  1  0.10868970  0.38281260  0.42201158  1
  Na  Na17  1  0.10868970  0.88281260  0.42201158  1
  Na  Na18  1  0.60868970  0.38281260  0.42201158  1
  Na  Na19  1  0.60868970  0.88281260  0.42201158  1
  Na  Na20  1  0.45143474  0.21093750  0.46454956  1
  Na  Na21  1  0.45143474  0.71093750  0.46454956  1
  Na  Na22  1  0.95143474  0.21093750  0.46454956  1
  Na  Na23  1  0.95143474  0.71093750  0.46454956  1
  Na  Na24  1  0.16724634  0.34988300  0.63502576  1
  Na  Na25  1  0.16724652  0.84988254  0.63502536  1
  Na  Na26  1  0.66724750  0.34988256  0.63502546  1
  Na  Na27  1  0.66724765  0.84988212  0.63502557  1
  Na  Na28  1  0.48259333  0.19531260  0.55721155  1
  Na  Na29  1  0.48259333  0.69531260  0.55721155  1
  Na  Na30  1  0.98259333  0.19531260  0.55721155  1
  Na  Na31  1  0.98259333  0.69531260  0.55721155  1
  Na  Na32  1  0.32533836  0.02343750  0.57649359  1
  Na  Na33  1  0.32533836  0.52343750  0.57649359  1
  Na  Na34  1  0.82533836  0.02343750  0.57649359  1
  Na  Na35  1  0.82533836  0.52343750  0.57649359  1
  Pd  Pd36  1  0.26302110  0.05468747  0.39116959  1
  Pd  Pd37  1  0.26302110  0.55468747  0.39116959  1
  Pd  Pd38  1  0.76302110  0.05468747  0.39116959  1
  Pd  Pd39  1  0.76302110  0.55468747  0.39116959  1
  Pd  Pd40  1  0.13984839  0.36718747  0.53792954  1
  Pd  Pd41  1  0.13984839  0.86718747  0.53792954  1
  Pd  Pd42  1  0.63984839  0.36718747  0.53792954  1
  Pd  Pd43  1  0.63984839  0.86718747  0.53792954  1
  Pd  Pd44  1  0.00968138  0.18225027  0.63482734  1
  Pd  Pd45  1  0.00968140  0.68225028  0.63482733  1
  Pd  Pd46  1  0.50968129  0.18225014  0.63482775  1
  Pd  Pd47  1  0.50968128  0.68225025  0.63482747  1
