# generated using pymatgen
data_Zr6CuBi2
_symmetry_space_group_name_H-M   'P 1'
_cell_length_a   13.67844206
_cell_length_b   8.78712078
_cell_length_c   46.23803938
_cell_angle_alpha   63.99166423
_cell_angle_beta   90.00000700
_cell_angle_gamma   38.89267746
_symmetry_Int_Tables_number   1
_chemical_formula_structural   Zr6CuBi2
_chemical_formula_sum   'Zr24 Cu4 Bi8'
_cell_volume   2497.36287050
_cell_formula_units_Z   4
loop_
 _symmetry_equiv_pos_site_id
 _symmetry_equiv_pos_as_xyz
  1  'x, y, z'
loop_
 _atom_site_type_symbol
 _atom_site_label
 _atom_site_symmetry_multiplicity
 _atom_site_fract_x
 _atom_site_fract_y
 _atom_site_fract_z
 _atom_site_occupancy
  Zr  Zr0  1  0.60563974  0.78872117  0.60206078  1
  Zr  Zr1  1  0.37336650  0.64758741  0.61358857  1
  Zr  Zr2  1  0.97892987  0.64789968  0.61357655  1
  Zr  Zr3  1  0.24096445  0.51809932  0.65689069  1
  Zr  Zr4  1  0.76242316  0.23757844  0.60632267  1
  Zr  Zr5  1  0.99999798  0.23758073  0.60632249  1
  Zr  Zr6  1  0.60563974  0.78872117  0.51872745  1
  Zr  Zr7  1  0.39435970  0.60564024  0.53398425  1
  Zr  Zr8  1  0.00000072  0.60563808  0.53398439  1
  Zr  Zr9  1  0.23757837  0.52484277  0.58238402  1
  Zr  Zr10  1  0.76242316  0.23757844  0.52298934  1
  Zr  Zr11  1  0.99999798  0.23758073  0.52298915  1
  Zr  Zr12  1  0.60563974  0.78872117  0.43539412  1
  Zr  Zr13  1  0.39435970  0.60564024  0.45065092  1
  Zr  Zr14  1  0.00000072  0.60563808  0.45065106  1
  Zr  Zr15  1  0.23757837  0.52484277  0.49905068  1
  Zr  Zr16  1  0.76242316  0.23757844  0.43965600  1
  Zr  Zr17  1  0.99999798  0.23758073  0.43965582  1
  Zr  Zr18  1  0.60563974  0.78872117  0.35206078  1
  Zr  Zr19  1  0.39435970  0.60564024  0.36731758  1
  Zr  Zr20  1  0.00000072  0.60563808  0.36731772  1
  Zr  Zr21  1  0.23757837  0.52484277  0.41571735  1
  Zr  Zr22  1  0.76242316  0.23757844  0.35632267  1
  Zr  Zr23  1  0.99999798  0.23758073  0.35632249  1
  Cu  Cu24  1  0.97605634  0.04789077  0.66501972  1
  Cu  Cu25  1  0.00000022  0.00000014  0.58445420  1
  Cu  Cu26  1  0.00000022  0.00000014  0.50112087  1
  Cu  Cu27  1  0.00000022  0.00000014  0.41778753  1
  Bi  Bi28  1  0.34109185  0.98437959  0.63224791  1
  Bi  Bi29  1  0.67446805  0.98434394  0.63224215  1
  Bi  Bi30  1  0.33333385  0.00000105  0.54278748  1
  Bi  Bi31  1  0.66666709  0.99999737  0.54278777  1
  Bi  Bi32  1  0.33333385  0.00000105  0.45945415  1
  Bi  Bi33  1  0.66666709  0.99999737  0.45945444  1
  Bi  Bi34  1  0.33333385  0.00000105  0.37612082  1
  Bi  Bi35  1  0.66666709  0.99999737  0.37612111  1
