# generated using pymatgen
data_Ti3Pd
_symmetry_space_group_name_H-M   'P 1'
_cell_length_a   10.20836195
_cell_length_b   10.20835690
_cell_length_c   30.62503935
_cell_angle_alpha   90.00000438
_cell_angle_beta   90.00000949
_cell_angle_gamma   90.00000881
_symmetry_Int_Tables_number   1
_chemical_formula_structural   Ti3Pd
_chemical_formula_sum   'Ti48 Pd16'
_cell_volume   3191.45379153
_cell_formula_units_Z   16
loop_
 _symmetry_equiv_pos_site_id
 _symmetry_equiv_pos_as_xyz
  1  'x, y, z'
loop_
 _atom_site_type_symbol
 _atom_site_label
 _atom_site_symmetry_multiplicity
 _atom_site_fract_x
 _atom_site_fract_y
 _atom_site_fract_z
 _atom_site_occupancy
  Ti  Ti0  1  0.24999996  0.37500015  0.46875000  1
  Ti  Ti1  1  0.24999996  0.87500015  0.46875000  1
  Ti  Ti2  1  0.74999996  0.37500015  0.46875000  1
  Ti  Ti3  1  0.74999996  0.87500015  0.46875000  1
  Ti  Ti4  1  0.12500017  0.00000011  0.38541666  1
  Ti  Ti5  1  0.12500017  0.50000011  0.38541666  1
  Ti  Ti6  1  0.62500017  0.00000011  0.38541666  1
  Ti  Ti7  1  0.62500017  0.50000011  0.38541666  1
  Ti  Ti8  1  0.49999997  0.25000003  0.42708330  1
  Ti  Ti9  1  0.49999997  0.75000003  0.42708330  1
  Ti  Ti10  1  0.99999997  0.25000003  0.42708330  1
  Ti  Ti11  1  0.99999997  0.75000003  0.42708330  1
  Ti  Ti12  1  0.24999998  0.12499974  0.46875001  1
  Ti  Ti13  1  0.24999998  0.62499974  0.46875001  1
  Ti  Ti14  1  0.74999998  0.12499974  0.46875001  1
  Ti  Ti15  1  0.74999998  0.62499974  0.46875001  1
  Ti  Ti16  1  0.37499985  0.00000001  0.38541669  1
  Ti  Ti17  1  0.37499985  0.50000001  0.38541669  1
  Ti  Ti18  1  0.87499985  0.00000001  0.38541669  1
  Ti  Ti19  1  0.87499985  0.50000001  0.38541669  1
  Ti  Ti20  1  0.00000015  0.24999990  0.34375003  1
  Ti  Ti21  1  0.00000015  0.74999990  0.34375003  1
  Ti  Ti22  1  0.50000015  0.24999990  0.34375003  1
  Ti  Ti23  1  0.50000015  0.74999990  0.34375003  1
  Ti  Ti24  1  0.24999638  0.37744853  0.63157179  1
  Ti  Ti25  1  0.24999565  0.87746168  0.63157327  1
  Ti  Ti26  1  0.75000250  0.37745161  0.63157204  1
  Ti  Ti27  1  0.75000462  0.87746094  0.63157426  1
  Ti  Ti28  1  0.12500017  0.00000011  0.55208333  1
  Ti  Ti29  1  0.12500017  0.50000011  0.55208333  1
  Ti  Ti30  1  0.62500017  0.00000011  0.55208333  1
  Ti  Ti31  1  0.62500017  0.50000011  0.55208333  1
  Ti  Ti32  1  0.49999477  0.25000048  0.59879970  1
  Ti  Ti33  1  0.49999694  0.74999971  0.59880038  1
  Ti  Ti34  1  0.00000412  0.25000019  0.59879911  1
  Ti  Ti35  1  0.00000488  0.74999944  0.59879842  1
  Ti  Ti36  1  0.24999688  0.12255285  0.63157211  1
  Ti  Ti37  1  0.24999565  0.62253713  0.63157321  1
  Ti  Ti38  1  0.75000257  0.12255045  0.63157241  1
  Ti  Ti39  1  0.75000446  0.62253688  0.63157420  1
  Ti  Ti40  1  0.37499985  0.00000001  0.55208336  1
  Ti  Ti41  1  0.37499985  0.50000001  0.55208336  1
  Ti  Ti42  1  0.87499985  0.00000001  0.55208336  1
  Ti  Ti43  1  0.87499985  0.50000001  0.55208336  1
  Ti  Ti44  1  0.00000015  0.24999990  0.51041669  1
  Ti  Ti45  1  0.00000015  0.74999990  0.51041669  1
  Ti  Ti46  1  0.50000015  0.24999990  0.51041669  1
  Ti  Ti47  1  0.50000015  0.74999990  0.51041669  1
  Pd  Pd48  1  0.24999995  0.25000001  0.38541667  1
  Pd  Pd49  1  0.24999995  0.75000001  0.38541667  1
  Pd  Pd50  1  0.74999995  0.25000001  0.38541667  1
  Pd  Pd51  1  0.74999995  0.75000001  0.38541667  1
  Pd  Pd52  1  0.49999996  0.00000004  0.46874999  1
  Pd  Pd53  1  0.49999996  0.50000004  0.46874999  1
  Pd  Pd54  1  0.99999996  0.00000004  0.46874999  1
  Pd  Pd55  1  0.99999996  0.50000004  0.46874999  1
  Pd  Pd56  1  0.24999995  0.25000001  0.55208333  1
  Pd  Pd57  1  0.24999995  0.75000001  0.55208333  1
  Pd  Pd58  1  0.74999995  0.25000001  0.55208333  1
  Pd  Pd59  1  0.74999995  0.75000001  0.55208333  1
  Pd  Pd60  1  0.49999939  0.00000379  0.63327904  1
  Pd  Pd61  1  0.49999862  0.49999622  0.63327911  1
  Pd  Pd62  1  0.00000078  0.00000355  0.63327884  1
  Pd  Pd63  1  0.00000126  0.49999643  0.63327890  1
