# generated using pymatgen
data_Zr5CuBi3
_symmetry_space_group_name_H-M   'P 1'
_cell_length_a   8.86948869
_cell_length_b   8.86949233
_cell_length_c   35.85063870
_cell_angle_alpha   89.99999968
_cell_angle_beta   90.00000336
_cell_angle_gamma   120.00000071
_symmetry_Int_Tables_number   1
_chemical_formula_structural   Zr5CuBi3
_chemical_formula_sum   'Zr20 Cu4 Bi12'
_cell_volume   2442.44544803
_cell_formula_units_Z   4
loop_
 _symmetry_equiv_pos_site_id
 _symmetry_equiv_pos_as_xyz
  1  'x, y, z'
loop_
 _atom_site_type_symbol
 _atom_site_label
 _atom_site_symmetry_multiplicity
 _atom_site_fract_x
 _atom_site_fract_y
 _atom_site_fract_z
 _atom_site_occupancy
  Zr  Zr0  1  0.99999978  0.26081855  0.44444437  1
  Zr  Zr1  1  0.73918186  0.73918178  0.44444433  1
  Zr  Zr2  1  0.26081790  0.00000004  0.44444434  1
  Zr  Zr3  1  0.99999997  0.73918199  0.36111121  1
  Zr  Zr4  1  0.26081833  0.26081811  0.36111120  1
  Zr  Zr5  1  0.73918159  0.00000012  0.36111123  1
  Zr  Zr6  1  0.66666653  0.33333365  0.48611109  1
  Zr  Zr7  1  0.33333328  0.66666664  0.48611111  1
  Zr  Zr8  1  0.33333320  0.66666663  0.40277778  1
  Zr  Zr9  1  0.66666659  0.33333359  0.40277780  1
  Zr  Zr10  1  0.00003079  0.27354479  0.60630515  1
  Zr  Zr11  1  0.72645495  0.72648583  0.60630518  1
  Zr  Zr12  1  0.27351398  0.99996935  0.60630510  1
  Zr  Zr13  1  0.99999997  0.73918199  0.52777788  1
  Zr  Zr14  1  0.26081833  0.26081811  0.52777787  1
  Zr  Zr15  1  0.73918159  0.00000012  0.52777789  1
  Zr  Zr16  1  0.66666677  0.33333393  0.64821530  1
  Zr  Zr17  1  0.33333385  0.66666687  0.64820241  1
  Zr  Zr18  1  0.33333320  0.66666663  0.56944444  1
  Zr  Zr19  1  0.66666659  0.33333359  0.56944447  1
  Cu  Cu20  1  0.00000033  0.99999988  0.48611110  1
  Cu  Cu21  1  0.00000044  0.99999991  0.40277780  1
  Cu  Cu22  1  0.99999983  0.99999967  0.64312616  1
  Cu  Cu23  1  0.00000044  0.99999991  0.56944447  1
  Bi  Bi24  1  0.00000074  0.61443634  0.44444427  1
  Bi  Bi25  1  0.38556293  0.38556374  0.44444429  1
  Bi  Bi26  1  0.61443638  0.99999918  0.44444427  1
  Bi  Bi27  1  0.00000061  0.38556345  0.36111128  1
  Bi  Bi28  1  0.61443596  0.61443705  0.36111126  1
  Bi  Bi29  1  0.38556357  0.99999936  0.36111128  1
  Bi  Bi30  1  0.00004914  0.62325187  0.62079391  1
  Bi  Bi31  1  0.37674797  0.37679661  0.62079377  1
  Bi  Bi32  1  0.62320270  0.99995050  0.62079397  1
  Bi  Bi33  1  0.00000061  0.38556345  0.52777794  1
  Bi  Bi34  1  0.61443596  0.61443705  0.52777793  1
  Bi  Bi35  1  0.38556357  0.99999936  0.52777794  1
