# generated using pymatgen
data_Zn2CuAu
_symmetry_space_group_name_H-M   'P 1'
_cell_length_a   9.50860264
_cell_length_b   11.28812711
_cell_length_c   36.10487382
_cell_angle_alpha   90.00000487
_cell_angle_beta   89.99999904
_cell_angle_gamma   90.00000741
_symmetry_Int_Tables_number   1
_chemical_formula_structural   Zn2CuAu
_chemical_formula_sum   'Zn48 Cu24 Au24'
_cell_volume   3875.29190825
_cell_formula_units_Z   24
loop_
 _symmetry_equiv_pos_site_id
 _symmetry_equiv_pos_as_xyz
  1  'x, y, z'
loop_
 _atom_site_type_symbol
 _atom_site_label
 _atom_site_symmetry_multiplicity
 _atom_site_fract_x
 _atom_site_fract_y
 _atom_site_fract_z
 _atom_site_occupancy
  Zn  Zn0  1  0.09068490  0.37453461  0.34375000  1
  Zn  Zn1  1  0.09068490  0.87453461  0.34375000  1
  Zn  Zn2  1  0.59068490  0.37453461  0.34375000  1
  Zn  Zn3  1  0.59068490  0.87453461  0.34375000  1
  Zn  Zn4  1  0.09068490  0.12546541  0.34375000  1
  Zn  Zn5  1  0.09068490  0.62546541  0.34375000  1
  Zn  Zn6  1  0.59068490  0.12546541  0.34375000  1
  Zn  Zn7  1  0.59068490  0.62546541  0.34375000  1
  Zn  Zn8  1  0.40931537  0.12453504  0.40625000  1
  Zn  Zn9  1  0.40931537  0.62453504  0.40625000  1
  Zn  Zn10  1  0.90931537  0.12453504  0.40625000  1
  Zn  Zn11  1  0.90931537  0.62453504  0.40625000  1
  Zn  Zn12  1  0.40931536  0.37546496  0.40625000  1
  Zn  Zn13  1  0.40931536  0.87546496  0.40625000  1
  Zn  Zn14  1  0.90931536  0.37546496  0.40625000  1
  Zn  Zn15  1  0.90931536  0.87546496  0.40625000  1
  Zn  Zn16  1  0.09068490  0.37453461  0.46875000  1
  Zn  Zn17  1  0.09068490  0.87453461  0.46875000  1
  Zn  Zn18  1  0.59068490  0.37453461  0.46875000  1
  Zn  Zn19  1  0.59068490  0.87453461  0.46875000  1
  Zn  Zn20  1  0.09068490  0.12546541  0.46875000  1
  Zn  Zn21  1  0.09068490  0.62546541  0.46875000  1
  Zn  Zn22  1  0.59068490  0.12546541  0.46875000  1
  Zn  Zn23  1  0.59068490  0.62546541  0.46875000  1
  Zn  Zn24  1  0.40931537  0.12453504  0.53125000  1
  Zn  Zn25  1  0.40931537  0.62453504  0.53125000  1
  Zn  Zn26  1  0.90931537  0.12453504  0.53125000  1
  Zn  Zn27  1  0.90931537  0.62453504  0.53125000  1
  Zn  Zn28  1  0.40931536  0.37546496  0.53125000  1
  Zn  Zn29  1  0.40931536  0.87546496  0.53125000  1
  Zn  Zn30  1  0.90931536  0.37546496  0.53125000  1
  Zn  Zn31  1  0.90931536  0.87546496  0.53125000  1
  Zn  Zn32  1  0.09068490  0.37453461  0.59375000  1
  Zn  Zn33  1  0.09068490  0.87453461  0.59375000  1
  Zn  Zn34  1  0.59068490  0.37453461  0.59375000  1
  Zn  Zn35  1  0.59068490  0.87453461  0.59375000  1
  Zn  Zn36  1  0.09068490  0.12546541  0.59375000  1
  Zn  Zn37  1  0.09068490  0.62546541  0.59375000  1
  Zn  Zn38  1  0.59068490  0.12546541  0.59375000  1
  Zn  Zn39  1  0.59068490  0.62546541  0.59375000  1
  Zn  Zn40  1  0.41023771  0.12672042  0.66071316  1
  Zn  Zn41  1  0.41023781  0.62672045  0.66071317  1
  Zn  Zn42  1  0.91023775  0.12672061  0.66071316  1
  Zn  Zn43  1  0.91023757  0.62672058  0.66071321  1
  Zn  Zn44  1  0.41023760  0.37327950  0.66071276  1
  Zn  Zn45  1  0.41023789  0.87327954  0.66071273  1
  Zn  Zn46  1  0.91023771  0.37327938  0.66071277  1
  Zn  Zn47  1  0.91023760  0.87327938  0.66071273  1
  Cu  Cu48  1  0.15734390  0.24999994  0.40625000  1
  Cu  Cu49  1  0.15734390  0.74999994  0.40625000  1
  Cu  Cu50  1  0.65734390  0.24999994  0.40625000  1
  Cu  Cu51  1  0.65734390  0.74999994  0.40625000  1
  Cu  Cu52  1  0.34265618  0.00000006  0.34375000  1
  Cu  Cu53  1  0.34265618  0.50000006  0.34375000  1
  Cu  Cu54  1  0.84265618  0.00000006  0.34375000  1
  Cu  Cu55  1  0.84265618  0.50000006  0.34375000  1
  Cu  Cu56  1  0.15734390  0.24999994  0.53125000  1
  Cu  Cu57  1  0.15734390  0.74999994  0.53125000  1
  Cu  Cu58  1  0.65734390  0.24999994  0.53125000  1
  Cu  Cu59  1  0.65734390  0.74999994  0.53125000  1
  Cu  Cu60  1  0.34265618  0.00000006  0.46875000  1
  Cu  Cu61  1  0.34265618  0.50000006  0.46875000  1
  Cu  Cu62  1  0.84265618  0.00000006  0.46875000  1
  Cu  Cu63  1  0.84265618  0.50000006  0.46875000  1
  Cu  Cu64  1  0.15432835  0.25000001  0.65546624  1
  Cu  Cu65  1  0.15432834  0.75000000  0.65546625  1
  Cu  Cu66  1  0.65432830  0.25000001  0.65546628  1
  Cu  Cu67  1  0.65432835  0.75000001  0.65546619  1
  Cu  Cu68  1  0.34265618  0.00000006  0.59375000  1
  Cu  Cu69  1  0.34265618  0.50000006  0.59375000  1
  Cu  Cu70  1  0.84265618  0.00000006  0.59375000  1
  Cu  Cu71  1  0.84265618  0.50000006  0.59375000  1
  Au  Au72  1  0.33850943  0.24999998  0.34375000  1
  Au  Au73  1  0.33850943  0.74999998  0.34375000  1
  Au  Au74  1  0.83850943  0.24999998  0.34375000  1
  Au  Au75  1  0.83850943  0.74999998  0.34375000  1
  Au  Au76  1  0.16148997  0.00000001  0.40625000  1
  Au  Au77  1  0.16148997  0.50000001  0.40625000  1
  Au  Au78  1  0.66148997  0.00000001  0.40625000  1
  Au  Au79  1  0.66148997  0.50000001  0.40625000  1
  Au  Au80  1  0.33850943  0.24999998  0.46875000  1
  Au  Au81  1  0.33850943  0.74999998  0.46875000  1
  Au  Au82  1  0.83850943  0.24999998  0.46875000  1
  Au  Au83  1  0.83850943  0.74999998  0.46875000  1
  Au  Au84  1  0.16148997  0.00000001  0.53125000  1
  Au  Au85  1  0.16148997  0.50000001  0.53125000  1
  Au  Au86  1  0.66148997  0.00000001  0.53125000  1
  Au  Au87  1  0.66148997  0.50000001  0.53125000  1
  Au  Au88  1  0.33850943  0.24999998  0.59375000  1
  Au  Au89  1  0.33850943  0.74999998  0.59375000  1
  Au  Au90  1  0.83850943  0.24999998  0.59375000  1
  Au  Au91  1  0.83850943  0.74999998  0.59375000  1
  Au  Au92  1  0.16082134  0.99999989  0.65782280  1
  Au  Au93  1  0.16082127  0.50000007  0.65782283  1
  Au  Au94  1  0.66082158  0.00000009  0.65782280  1
  Au  Au95  1  0.66082149  0.49999986  0.65782283  1
