# generated using pymatgen
data_Al2CuPd
_symmetry_space_group_name_H-M   'P 1'
_cell_length_a   8.64899975
_cell_length_b   8.64900017
_cell_length_c   31.77845816
_cell_angle_alpha   90.00000464
_cell_angle_beta   90.00000331
_cell_angle_gamma   119.99999283
_symmetry_Int_Tables_number   1
_chemical_formula_structural   Al2CuPd
_chemical_formula_sum   'Al24 Cu12 Pd12'
_cell_volume   2058.71048141
_cell_formula_units_Z   12
loop_
 _symmetry_equiv_pos_site_id
 _symmetry_equiv_pos_as_xyz
  1  'x, y, z'
loop_
 _atom_site_type_symbol
 _atom_site_label
 _atom_site_symmetry_multiplicity
 _atom_site_fract_x
 _atom_site_fract_y
 _atom_site_fract_z
 _atom_site_occupancy
  Al  Al0  1  0.08333341  0.04166667  0.56756792  1
  Al  Al1  1  0.08333341  0.54166667  0.56756792  1
  Al  Al2  1  0.58333341  0.04166667  0.56756792  1
  Al  Al3  1  0.58333341  0.54166667  0.56756792  1
  Al  Al4  1  0.25000009  0.37500010  0.62414372  1
  Al  Al5  1  0.25000025  0.87499973  0.62414370  1
  Al  Al6  1  0.75000033  0.37499992  0.62414370  1
  Al  Al7  1  0.75000001  0.87500002  0.62414370  1
  Al  Al8  1  0.25000002  0.37500000  0.45645682  1
  Al  Al9  1  0.25000002  0.87500000  0.45645682  1
  Al  Al10  1  0.75000002  0.37500000  0.45645682  1
  Al  Al11  1  0.75000002  0.87500000  0.45645682  1
  Al  Al12  1  0.41666672  0.20833333  0.51201237  1
  Al  Al13  1  0.41666672  0.70833333  0.51201237  1
  Al  Al14  1  0.91666672  0.20833333  0.51201237  1
  Al  Al15  1  0.91666672  0.70833333  0.51201237  1
  Al  Al16  1  0.41666672  0.20833334  0.34534570  1
  Al  Al17  1  0.41666672  0.70833334  0.34534570  1
  Al  Al18  1  0.91666672  0.20833334  0.34534570  1
  Al  Al19  1  0.91666672  0.70833334  0.34534570  1
  Al  Al20  1  0.08333341  0.04166666  0.40090125  1
  Al  Al21  1  0.08333341  0.54166666  0.40090125  1
  Al  Al22  1  0.58333341  0.04166666  0.40090125  1
  Al  Al23  1  0.58333341  0.54166666  0.40090125  1
  Cu  Cu24  1  0.08333321  0.04166678  0.64334580  1
  Cu  Cu25  1  0.08333327  0.54166682  0.64334587  1
  Cu  Cu26  1  0.58333327  0.04166671  0.64334585  1
  Cu  Cu27  1  0.58333329  0.54166688  0.64334584  1
  Cu  Cu28  1  0.25000002  0.37500000  0.53979015  1
  Cu  Cu29  1  0.25000002  0.87500000  0.53979015  1
  Cu  Cu30  1  0.75000002  0.37500000  0.53979015  1
  Cu  Cu31  1  0.75000002  0.87500000  0.53979015  1
  Cu  Cu32  1  0.41666672  0.20833333  0.42867904  1
  Cu  Cu33  1  0.41666672  0.70833333  0.42867904  1
  Cu  Cu34  1  0.91666672  0.20833333  0.42867904  1
  Cu  Cu35  1  0.91666672  0.70833333  0.42867904  1
  Pd  Pd36  1  0.41666675  0.20833347  0.60071568  1
  Pd  Pd37  1  0.41666643  0.70833327  0.60071576  1
  Pd  Pd38  1  0.91666667  0.20833366  0.60071572  1
  Pd  Pd39  1  0.91666665  0.70833322  0.60071559  1
  Pd  Pd40  1  0.08333341  0.04166667  0.48423458  1
  Pd  Pd41  1  0.08333341  0.54166667  0.48423458  1
  Pd  Pd42  1  0.58333341  0.04166667  0.48423458  1
  Pd  Pd43  1  0.58333341  0.54166667  0.48423458  1
  Pd  Pd44  1  0.25000002  0.37500000  0.37312349  1
  Pd  Pd45  1  0.25000002  0.87500000  0.37312349  1
  Pd  Pd46  1  0.75000002  0.37500000  0.37312349  1
  Pd  Pd47  1  0.75000002  0.87500000  0.37312349  1
