# generated using pymatgen
data_Zr2Cu
_symmetry_space_group_name_H-M   'P 1'
_cell_length_a   9.76877981
_cell_length_b   9.76877943
_cell_length_c   33.92469166
_cell_angle_alpha   90.00000076
_cell_angle_beta   89.99999883
_cell_angle_gamma   89.99999707
_symmetry_Int_Tables_number   1
_chemical_formula_structural   Zr2Cu
_chemical_formula_sum   'Zr36 Cu18'
_cell_volume   3237.40127524
_cell_formula_units_Z   18
loop_
 _symmetry_equiv_pos_site_id
 _symmetry_equiv_pos_as_xyz
  1  'x, y, z'
loop_
 _atom_site_type_symbol
 _atom_site_label
 _atom_site_symmetry_multiplicity
 _atom_site_fract_x
 _atom_site_fract_y
 _atom_site_fract_z
 _atom_site_occupancy
  Zr  Zr0  1  0.33333333  0.33333333  0.42067875  1
  Zr  Zr1  1  0.33333333  0.66666667  0.42067875  1
  Zr  Zr2  1  0.33333333  1.00000000  0.42067875  1
  Zr  Zr3  1  0.66666666  0.33333333  0.42067875  1
  Zr  Zr4  1  0.66666666  0.66666667  0.42067875  1
  Zr  Zr5  1  0.66666666  1.00000000  0.42067875  1
  Zr  Zr6  1  1.00000000  0.33333333  0.42067875  1
  Zr  Zr7  1  1.00000000  0.66666667  0.42067875  1
  Zr  Zr8  1  1.00000000  1.00000000  0.42067875  1
  Zr  Zr9  1  0.16666667  0.16666666  0.35709898  1
  Zr  Zr10  1  0.16666667  0.50000000  0.35709898  1
  Zr  Zr11  1  0.16666667  0.83333333  0.35709898  1
  Zr  Zr12  1  0.50000000  0.16666666  0.35709898  1
  Zr  Zr13  1  0.50000000  0.50000000  0.35709898  1
  Zr  Zr14  1  0.50000000  0.83333333  0.35709898  1
  Zr  Zr15  1  0.83333333  0.16666666  0.35709898  1
  Zr  Zr16  1  0.83333333  0.50000000  0.35709898  1
  Zr  Zr17  1  0.83333333  0.83333333  0.35709898  1
  Zr  Zr18  1  0.16665135  0.16667380  0.58769853  1
  Zr  Zr19  1  0.16663960  0.50000873  0.58770024  1
  Zr  Zr20  1  0.16665298  0.83331763  0.58770167  1
  Zr  Zr21  1  0.50001798  0.16665916  0.58769543  1
  Zr  Zr22  1  0.50002411  0.50001746  0.58769534  1
  Zr  Zr23  1  0.50002446  0.83332338  0.58770114  1
  Zr  Zr24  1  0.83333085  0.16667355  0.58770485  1
  Zr  Zr25  1  0.83333656  0.50001498  0.58770901  1
  Zr  Zr26  1  0.83332241  0.83331163  0.58770959  1
  Zr  Zr27  1  0.00000001  0.00000001  0.52376566  1
  Zr  Zr28  1  0.00000001  0.33333334  0.52376566  1
  Zr  Zr29  1  0.00000001  0.66666668  0.52376566  1
  Zr  Zr30  1  0.33333334  0.00000001  0.52376566  1
  Zr  Zr31  1  0.33333334  0.33333334  0.52376566  1
  Zr  Zr32  1  0.33333334  0.66666668  0.52376566  1
  Zr  Zr33  1  0.66666667  0.00000001  0.52376566  1
  Zr  Zr34  1  0.66666667  0.33333334  0.52376566  1
  Zr  Zr35  1  0.66666667  0.66666668  0.52376566  1
  Cu  Cu36  1  0.33333176  0.33332964  0.63551632  1
  Cu  Cu37  1  0.33333120  0.66666855  0.63551567  1
  Cu  Cu38  1  0.33339475  0.00000196  0.63552135  1
  Cu  Cu39  1  0.66666649  0.33332978  0.63551453  1
  Cu  Cu40  1  0.66666708  0.66666858  0.63551174  1
  Cu  Cu41  1  0.66660289  0.00000168  0.63551799  1
  Cu  Cu42  1  0.00000213  0.33339381  0.63551886  1
  Cu  Cu43  1  0.00000152  0.66660461  0.63551935  1
  Cu  Cu44  1  0.00000228  0.00000137  0.63551281  1
  Cu  Cu45  1  0.16666667  0.16666667  0.47222218  1
  Cu  Cu46  1  0.16666667  0.50000000  0.47222218  1
  Cu  Cu47  1  0.16666667  0.83333333  0.47222218  1
  Cu  Cu48  1  0.50000000  0.16666667  0.47222218  1
  Cu  Cu49  1  0.50000000  0.50000000  0.47222218  1
  Cu  Cu50  1  0.50000000  0.83333333  0.47222218  1
  Cu  Cu51  1  0.83333333  0.16666667  0.47222218  1
  Cu  Cu52  1  0.83333333  0.50000000  0.47222218  1
  Cu  Cu53  1  0.83333333  0.83333333  0.47222218  1
