# generated using pymatgen
data_GaCuPd2
_symmetry_space_group_name_H-M   'P 1'
_cell_length_a   8.70225228
_cell_length_b   12.30684213
_cell_length_c   34.80900781
_cell_angle_alpha   89.99999879
_cell_angle_beta   90.00000138
_cell_angle_gamma   89.99999898
_symmetry_Int_Tables_number   1
_chemical_formula_structural   GaCuPd2
_chemical_formula_sum   'Ga24 Cu24 Pd48'
_cell_volume   3727.94883713
_cell_formula_units_Z   24
loop_
 _symmetry_equiv_pos_site_id
 _symmetry_equiv_pos_as_xyz
  1  'x, y, z'
loop_
 _atom_site_type_symbol
 _atom_site_label
 _atom_site_symmetry_multiplicity
 _atom_site_fract_x
 _atom_site_fract_y
 _atom_site_fract_z
 _atom_site_occupancy
  Cu  Cu0  1  0.37499999  0.00000013  0.34375000  1
  Cu  Cu1  1  0.37499999  0.50000013  0.34375000  1
  Cu  Cu2  1  0.87499999  0.00000013  0.34375000  1
  Cu  Cu3  1  0.87499999  0.50000013  0.34375000  1
  Cu  Cu4  1  0.12499999  0.24999987  0.40625000  1
  Cu  Cu5  1  0.12499999  0.74999987  0.40625000  1
  Cu  Cu6  1  0.62499999  0.24999987  0.40625000  1
  Cu  Cu7  1  0.62499999  0.74999987  0.40625000  1
  Cu  Cu8  1  0.37499999  0.00000013  0.46875000  1
  Cu  Cu9  1  0.37499999  0.50000013  0.46875000  1
  Cu  Cu10  1  0.87499999  0.00000013  0.46875000  1
  Cu  Cu11  1  0.87499999  0.50000013  0.46875000  1
  Cu  Cu12  1  0.12499999  0.24999987  0.53125000  1
  Cu  Cu13  1  0.12499999  0.74999987  0.53125000  1
  Cu  Cu14  1  0.62499999  0.24999987  0.53125000  1
  Cu  Cu15  1  0.62499999  0.74999987  0.53125000  1
  Cu  Cu16  1  0.37499999  0.00000013  0.59375000  1
  Cu  Cu17  1  0.37499999  0.50000013  0.59375000  1
  Cu  Cu18  1  0.87499999  0.00000013  0.59375000  1
  Cu  Cu19  1  0.87499999  0.50000013  0.59375000  1
  Cu  Cu20  1  0.12499999  0.25000001  0.65792283  1
  Cu  Cu21  1  0.12500000  0.75000001  0.65792284  1
  Cu  Cu22  1  0.62499998  0.25000000  0.65792283  1
  Cu  Cu23  1  0.62500000  0.75000000  0.65792283  1
  Ga  Ga24  1  0.12500000  0.00000003  0.40625000  1
  Ga  Ga25  1  0.12500000  0.50000003  0.40625000  1
  Ga  Ga26  1  0.62500000  0.00000003  0.40625000  1
  Ga  Ga27  1  0.62500000  0.50000003  0.40625000  1
  Ga  Ga28  1  0.37499999  0.24999997  0.34375000  1
  Ga  Ga29  1  0.37499999  0.74999997  0.34375000  1
  Ga  Ga30  1  0.87499999  0.24999997  0.34375000  1
  Ga  Ga31  1  0.87499999  0.74999997  0.34375000  1
  Ga  Ga32  1  0.12500000  0.00000003  0.53125000  1
  Ga  Ga33  1  0.12500000  0.50000003  0.53125000  1
  Ga  Ga34  1  0.62500000  0.00000003  0.53125000  1
  Ga  Ga35  1  0.62500000  0.50000003  0.53125000  1
  Ga  Ga36  1  0.37499999  0.24999997  0.46875000  1
  Ga  Ga37  1  0.37499999  0.74999997  0.46875000  1
  Ga  Ga38  1  0.87499999  0.24999997  0.46875000  1
  Ga  Ga39  1  0.87499999  0.74999997  0.46875000  1
  Ga  Ga40  1  0.12499999  0.99999999  0.65793633  1
  Ga  Ga41  1  0.12499998  0.49999995  0.65793633  1
  Ga  Ga42  1  0.62499999  1.00000000  0.65793632  1
  Ga  Ga43  1  0.62500001  0.49999996  0.65793632  1
  Ga  Ga44  1  0.37499999  0.24999997  0.59375000  1
  Ga  Ga45  1  0.37499999  0.74999997  0.59375000  1
  Ga  Ga46  1  0.87499999  0.24999997  0.59375000  1
  Ga  Ga47  1  0.87499999  0.74999997  0.59375000  1
  Pd  Pd48  1  0.37500000  0.12500001  0.40625000  1
  Pd  Pd49  1  0.37500000  0.62500001  0.40625000  1
  Pd  Pd50  1  0.87500000  0.12500001  0.40625000  1
  Pd  Pd51  1  0.87500000  0.62500001  0.40625000  1
  Pd  Pd52  1  0.12500002  0.12499999  0.34375001  1
  Pd  Pd53  1  0.12500002  0.62499999  0.34375001  1
  Pd  Pd54  1  0.62500002  0.12499999  0.34375001  1
  Pd  Pd55  1  0.62500002  0.62499999  0.34375001  1
  Pd  Pd56  1  0.12500001  0.37500000  0.34375000  1
  Pd  Pd57  1  0.12500001  0.87500000  0.34375000  1
  Pd  Pd58  1  0.62500001  0.37500000  0.34375000  1
  Pd  Pd59  1  0.62500001  0.87500000  0.34375000  1
  Pd  Pd60  1  0.37500001  0.37500000  0.40625000  1
  Pd  Pd61  1  0.37500001  0.87500000  0.40625000  1
  Pd  Pd62  1  0.87500001  0.37500000  0.40625000  1
  Pd  Pd63  1  0.87500001  0.87500000  0.40625000  1
  Pd  Pd64  1  0.37500000  0.12500001  0.53125000  1
  Pd  Pd65  1  0.37500000  0.62500001  0.53125000  1
  Pd  Pd66  1  0.87500000  0.12500001  0.53125000  1
  Pd  Pd67  1  0.87500000  0.62500001  0.53125000  1
  Pd  Pd68  1  0.12500002  0.12499999  0.46875001  1
  Pd  Pd69  1  0.12500002  0.62499999  0.46875001  1
  Pd  Pd70  1  0.62500002  0.12499999  0.46875001  1
  Pd  Pd71  1  0.62500002  0.62499999  0.46875001  1
  Pd  Pd72  1  0.12500001  0.37500000  0.46875000  1
  Pd  Pd73  1  0.12500001  0.87500000  0.46875000  1
  Pd  Pd74  1  0.62500001  0.37500000  0.46875000  1
  Pd  Pd75  1  0.62500001  0.87500000  0.46875000  1
  Pd  Pd76  1  0.37500001  0.37500000  0.53125000  1
  Pd  Pd77  1  0.37500001  0.87500000  0.53125000  1
  Pd  Pd78  1  0.87500001  0.37500000  0.53125000  1
  Pd  Pd79  1  0.87500001  0.87500000  0.53125000  1
  Pd  Pd80  1  0.37500001  0.12321030  0.65408848  1
  Pd  Pd81  1  0.37500001  0.62321027  0.65408848  1
  Pd  Pd82  1  0.87500002  0.12321029  0.65408848  1
  Pd  Pd83  1  0.87500001  0.62321027  0.65408848  1
  Pd  Pd84  1  0.12500002  0.12499999  0.59375001  1
  Pd  Pd85  1  0.12500002  0.62499999  0.59375001  1
  Pd  Pd86  1  0.62500002  0.12499999  0.59375001  1
  Pd  Pd87  1  0.62500002  0.62499999  0.59375001  1
  Pd  Pd88  1  0.12500001  0.37500000  0.59375000  1
  Pd  Pd89  1  0.12500001  0.87500000  0.59375000  1
  Pd  Pd90  1  0.62500001  0.37500000  0.59375000  1
  Pd  Pd91  1  0.62500001  0.87500000  0.59375000  1
  Pd  Pd92  1  0.37499999  0.37678971  0.65408844  1
  Pd  Pd93  1  0.37499998  0.87678973  0.65408844  1
  Pd  Pd94  1  0.87500000  0.37678972  0.65408844  1
  Pd  Pd95  1  0.87500000  0.87678975  0.65408844  1
