# generated using pymatgen
data_AlCuPd2
_symmetry_space_group_name_H-M   'P 1'
_cell_length_a   9.40957389
_cell_length_b   9.40957514
_cell_length_c   35.06458346
_cell_angle_alpha   90.00000134
_cell_angle_beta   89.99999915
_cell_angle_gamma   90.00000183
_symmetry_Int_Tables_number   1
_chemical_formula_structural   AlCuPd2
_chemical_formula_sum   'Al18 Cu18 Pd36'
_cell_volume   3104.62146489
_cell_formula_units_Z   18
loop_
 _symmetry_equiv_pos_site_id
 _symmetry_equiv_pos_as_xyz
  1  'x, y, z'
loop_
 _atom_site_type_symbol
 _atom_site_label
 _atom_site_symmetry_multiplicity
 _atom_site_fract_x
 _atom_site_fract_y
 _atom_site_fract_z
 _atom_site_occupancy
  Al  Al0  1  0.33333333  0.33333333  0.56587761  1
  Al  Al1  1  0.33333333  0.66666667  0.56587761  1
  Al  Al2  1  0.33333333  1.00000000  0.56587761  1
  Al  Al3  1  0.66666667  0.33333333  0.56587761  1
  Al  Al4  1  0.66666667  0.66666667  0.56587761  1
  Al  Al5  1  0.66666667  1.00000000  0.56587761  1
  Al  Al6  1  1.00000000  0.33333333  0.56587761  1
  Al  Al7  1  1.00000000  0.66666667  0.56587761  1
  Al  Al8  1  1.00000000  1.00000000  0.56587761  1
  Al  Al9  1  0.33333333  0.33333333  0.39921095  1
  Al  Al10  1  0.33333333  0.66666667  0.39921095  1
  Al  Al11  1  0.33333333  1.00000000  0.39921095  1
  Al  Al12  1  0.66666667  0.33333333  0.39921095  1
  Al  Al13  1  0.66666667  0.66666667  0.39921095  1
  Al  Al14  1  0.66666667  1.00000000  0.39921095  1
  Al  Al15  1  1.00000000  0.33333333  0.39921095  1
  Al  Al16  1  1.00000000  0.66666667  0.39921095  1
  Al  Al17  1  1.00000000  1.00000000  0.39921095  1
  Cu  Cu18  1  0.33333066  1.00000000  0.64883070  1
  Cu  Cu19  1  0.33333858  0.33333861  0.64882949  1
  Cu  Cu20  1  0.33333859  0.66666139  0.64882949  1
  Cu  Cu21  1  0.66666929  0.99999998  0.64883071  1
  Cu  Cu22  1  0.66666136  0.33333862  0.64882950  1
  Cu  Cu23  1  0.66666137  0.66666139  0.64882949  1
  Cu  Cu24  1  0.99999999  0.00000000  0.64883019  1
  Cu  Cu25  1  1.00000000  0.33333068  0.64883071  1
  Cu  Cu26  1  0.99999998  0.66666931  0.64883071  1
  Cu  Cu27  1  0.33333331  0.00000000  0.48254428  1
  Cu  Cu28  1  0.33333331  0.33333333  0.48254428  1
  Cu  Cu29  1  0.33333331  0.66666667  0.48254428  1
  Cu  Cu30  1  0.66666664  0.00000000  0.48254428  1
  Cu  Cu31  1  0.66666664  0.33333333  0.48254428  1
  Cu  Cu32  1  0.66666664  0.66666667  0.48254428  1
  Cu  Cu33  1  0.99999998  0.00000000  0.48254428  1
  Cu  Cu34  1  0.99999998  0.33333333  0.48254428  1
  Cu  Cu35  1  0.99999998  0.66666667  0.48254428  1
  Pd  Pd36  1  0.16666666  0.16666667  0.52510439  1
  Pd  Pd37  1  0.16666666  0.50000001  0.52510439  1
  Pd  Pd38  1  0.16666666  0.83333334  0.52510439  1
  Pd  Pd39  1  0.50000000  0.16666667  0.52510439  1
  Pd  Pd40  1  0.50000000  0.50000001  0.52510439  1
  Pd  Pd41  1  0.50000000  0.83333334  0.52510439  1
  Pd  Pd42  1  0.83333333  0.16666667  0.52510439  1
  Pd  Pd43  1  0.83333333  0.50000001  0.52510439  1
  Pd  Pd44  1  0.83333333  0.83333334  0.52510439  1
  Pd  Pd45  1  0.16666908  0.16666906  0.60719599  1
  Pd  Pd46  1  0.16666982  0.50000000  0.60719596  1
  Pd  Pd47  1  0.16666906  0.83333093  0.60719600  1
  Pd  Pd48  1  0.49999996  0.16666981  0.60719595  1
  Pd  Pd49  1  0.49999997  0.50000001  0.60719566  1
  Pd  Pd50  1  0.49999998  0.83333016  0.60719595  1
  Pd  Pd51  1  0.83333092  0.16666905  0.60719599  1
  Pd  Pd52  1  0.83333017  0.50000002  0.60719595  1
  Pd  Pd53  1  0.83333092  0.83333092  0.60719599  1
  Pd  Pd54  1  0.16666666  0.16666667  0.35843772  1
  Pd  Pd55  1  0.16666666  0.50000001  0.35843772  1
  Pd  Pd56  1  0.16666666  0.83333334  0.35843772  1
  Pd  Pd57  1  0.50000000  0.16666667  0.35843772  1
  Pd  Pd58  1  0.50000000  0.50000001  0.35843772  1
  Pd  Pd59  1  0.50000000  0.83333334  0.35843772  1
  Pd  Pd60  1  0.83333333  0.16666667  0.35843772  1
  Pd  Pd61  1  0.83333333  0.50000001  0.35843772  1
  Pd  Pd62  1  0.83333333  0.83333334  0.35843772  1
  Pd  Pd63  1  0.16666665  0.16666666  0.43998416  1
  Pd  Pd64  1  0.16666665  0.49999999  0.43998416  1
  Pd  Pd65  1  0.16666665  0.83333333  0.43998416  1
  Pd  Pd66  1  0.49999998  0.16666666  0.43998416  1
  Pd  Pd67  1  0.49999998  0.49999999  0.43998416  1
  Pd  Pd68  1  0.49999998  0.83333333  0.43998416  1
  Pd  Pd69  1  0.83333332  0.16666666  0.43998416  1
  Pd  Pd70  1  0.83333332  0.49999999  0.43998416  1
  Pd  Pd71  1  0.83333332  0.83333333  0.43998416  1
