# generated using pymatgen
data_Cd3Pd
_symmetry_space_group_name_H-M   'P 1'
_cell_length_a   8.62189416
_cell_length_b   8.62189422
_cell_length_c   34.48757694
_cell_angle_alpha   90.00000120
_cell_angle_beta   90.00000033
_cell_angle_gamma   90.00000013
_symmetry_Int_Tables_number   1
_chemical_formula_structural   Cd3Pd
_chemical_formula_sum   'Cd36 Pd12'
_cell_volume   2563.70505636
_cell_formula_units_Z   12
loop_
 _symmetry_equiv_pos_site_id
 _symmetry_equiv_pos_as_xyz
  1  'x, y, z'
loop_
 _atom_site_type_symbol
 _atom_site_label
 _atom_site_symmetry_multiplicity
 _atom_site_fract_x
 _atom_site_fract_y
 _atom_site_fract_z
 _atom_site_occupancy
  Cd  Cd0  1  0.25000000  0.25000000  0.40625000  1
  Cd  Cd1  1  0.25000000  0.75000000  0.40625000  1
  Cd  Cd2  1  0.75000000  0.25000000  0.40625000  1
  Cd  Cd3  1  0.75000000  0.75000000  0.40625000  1
  Cd  Cd4  1  0.50000000  0.25000000  0.34375000  1
  Cd  Cd5  1  0.50000000  0.75000000  0.34375000  1
  Cd  Cd6  1  1.00000000  0.25000000  0.34375000  1
  Cd  Cd7  1  1.00000000  0.75000000  0.34375000  1
  Cd  Cd8  1  0.25000000  0.00000000  0.34375000  1
  Cd  Cd9  1  0.25000000  0.50000000  0.34375000  1
  Cd  Cd10  1  0.75000000  0.00000000  0.34375000  1
  Cd  Cd11  1  0.75000000  0.50000000  0.34375000  1
  Cd  Cd12  1  0.25000000  0.25000000  0.53125000  1
  Cd  Cd13  1  0.25000000  0.75000000  0.53125000  1
  Cd  Cd14  1  0.75000000  0.25000000  0.53125000  1
  Cd  Cd15  1  0.75000000  0.75000000  0.53125000  1
  Cd  Cd16  1  0.50000000  0.25000000  0.46875000  1
  Cd  Cd17  1  0.50000000  0.75000000  0.46875000  1
  Cd  Cd18  1  1.00000000  0.25000000  0.46875000  1
  Cd  Cd19  1  1.00000000  0.75000000  0.46875000  1
  Cd  Cd20  1  0.25000000  0.00000000  0.46875000  1
  Cd  Cd21  1  0.25000000  0.50000000  0.46875000  1
  Cd  Cd22  1  0.75000000  0.00000000  0.46875000  1
  Cd  Cd23  1  0.75000000  0.50000000  0.46875000  1
  Cd  Cd24  1  0.24999981  0.25000006  0.66188430  1
  Cd  Cd25  1  0.24999981  0.74999998  0.66188432  1
  Cd  Cd26  1  0.75000019  0.25000004  0.66188431  1
  Cd  Cd27  1  0.75000024  0.74999995  0.66188431  1
  Cd  Cd28  1  0.50000000  0.25000000  0.59375000  1
  Cd  Cd29  1  0.50000000  0.75000000  0.59375000  1
  Cd  Cd30  1  1.00000000  0.25000000  0.59375000  1
  Cd  Cd31  1  1.00000000  0.75000000  0.59375000  1
  Cd  Cd32  1  0.25000000  0.00000000  0.59375000  1
  Cd  Cd33  1  0.25000000  0.50000000  0.59375000  1
  Cd  Cd34  1  0.75000000  0.00000000  0.59375000  1
  Cd  Cd35  1  0.75000000  0.50000000  0.59375000  1
  Pd  Pd36  1  0.50000000  0.50000000  0.40625000  1
  Pd  Pd37  1  0.50000000  1.00000000  0.40625000  1
  Pd  Pd38  1  1.00000000  0.50000000  0.40625000  1
  Pd  Pd39  1  1.00000000  1.00000000  0.40625000  1
  Pd  Pd40  1  0.50000000  0.50000000  0.53125000  1
  Pd  Pd41  1  0.50000000  1.00000000  0.53125000  1
  Pd  Pd42  1  1.00000000  0.50000000  0.53125000  1
  Pd  Pd43  1  1.00000000  1.00000000  0.53125000  1
  Pd  Pd44  1  0.49999999  0.49999999  0.64797536  1
  Pd  Pd45  1  0.50000000  1.00000000  0.64797535  1
  Pd  Pd46  1  0.99999998  0.49999999  0.64797538  1
  Pd  Pd47  1  1.00000000  1.00000000  0.64797533  1
