# generated using pymatgen
data_Zn2CuAu
_symmetry_space_group_name_H-M   'P 1'
_cell_length_a   9.50860264
_cell_length_b   14.45318133
_cell_length_c   40.61798304
_cell_angle_alpha   128.64655230
_cell_angle_beta   89.99999904
_cell_angle_gamma   90.00000639
_symmetry_Int_Tables_number   1
_chemical_formula_structural   Zn2CuAu
_chemical_formula_sum   'Zn48 Cu24 Au24'
_cell_volume   4359.70339598
_cell_formula_units_Z   24
loop_
 _symmetry_equiv_pos_site_id
 _symmetry_equiv_pos_as_xyz
  1  'x, y, z'
loop_
 _atom_site_type_symbol
 _atom_site_label
 _atom_site_symmetry_multiplicity
 _atom_site_fract_x
 _atom_site_fract_y
 _atom_site_fract_z
 _atom_site_occupancy
  Zn  Zn0  1  0.08555931  0.12001034  0.66413769  1
  Zn  Zn1  1  0.08555935  0.62001037  0.66413769  1
  Zn  Zn2  1  0.58555922  0.12001035  0.66413769  1
  Zn  Zn3  1  0.58555938  0.62001040  0.66413769  1
  Zn  Zn4  1  0.10031478  0.38643269  0.61867425  1
  Zn  Zn5  1  0.10031475  0.88643266  0.61867425  1
  Zn  Zn6  1  0.60031478  0.38643272  0.61867428  1
  Zn  Zn7  1  0.60031475  0.88643269  0.61867425  1
  Zn  Zn8  1  0.41444097  0.37001066  0.66413764  1
  Zn  Zn9  1  0.41444100  0.87001065  0.66413763  1
  Zn  Zn10  1  0.91444097  0.37001069  0.66413764  1
  Zn  Zn11  1  0.91444104  0.87001067  0.66413764  1
  Zn  Zn12  1  0.39968485  0.13643330  0.61867477  1
  Zn  Zn13  1  0.39968492  0.63643329  0.61867477  1
  Zn  Zn14  1  0.89968486  0.13643336  0.61867480  1
  Zn  Zn15  1  0.89968490  0.63643330  0.61867477  1
  Zn  Zn16  1  0.09068478  0.12546539  0.55584372  1
  Zn  Zn17  1  0.09068478  0.62546539  0.55584372  1
  Zn  Zn18  1  0.59068478  0.12546539  0.55584372  1
  Zn  Zn19  1  0.59068478  0.62546539  0.55584372  1
  Zn  Zn20  1  0.09068486  0.37453459  0.50008131  1
  Zn  Zn21  1  0.09068486  0.87453459  0.50008131  1
  Zn  Zn22  1  0.59068486  0.37453459  0.50008131  1
  Zn  Zn23  1  0.59068486  0.87453459  0.50008131  1
  Zn  Zn24  1  0.40931533  0.37546496  0.55584362  1
  Zn  Zn25  1  0.40931533  0.87546496  0.55584362  1
  Zn  Zn26  1  0.90931533  0.37546496  0.55584362  1
  Zn  Zn27  1  0.90931533  0.87546496  0.55584362  1
  Zn  Zn28  1  0.40931525  0.12453504  0.50008141  1
  Zn  Zn29  1  0.40931525  0.62453504  0.50008141  1
  Zn  Zn30  1  0.90931525  0.12453504  0.50008141  1
  Zn  Zn31  1  0.90931525  0.62453504  0.50008141  1
  Zn  Zn32  1  0.09068478  0.12546539  0.44473260  1
  Zn  Zn33  1  0.09068478  0.62546539  0.44473260  1
  Zn  Zn34  1  0.59068478  0.12546539  0.44473260  1
  Zn  Zn35  1  0.59068478  0.62546539  0.44473260  1
  Zn  Zn36  1  0.09068486  0.37453459  0.38897020  1
  Zn  Zn37  1  0.09068486  0.87453459  0.38897020  1
  Zn  Zn38  1  0.59068486  0.37453459  0.38897020  1
  Zn  Zn39  1  0.59068486  0.87453459  0.38897020  1
  Zn  Zn40  1  0.40931533  0.37546496  0.44473251  1
  Zn  Zn41  1  0.40931533  0.87546496  0.44473251  1
  Zn  Zn42  1  0.90931533  0.37546496  0.44473251  1
  Zn  Zn43  1  0.90931533  0.87546496  0.44473251  1
  Zn  Zn44  1  0.40931525  0.12453504  0.38897030  1
  Zn  Zn45  1  0.40931525  0.62453504  0.38897030  1
  Zn  Zn46  1  0.90931525  0.12453504  0.38897030  1
  Zn  Zn47  1  0.90931525  0.62453504  0.38897030  1
  Cu  Cu48  1  0.15042411  0.24724835  0.63896827  1
  Cu  Cu49  1  0.15042419  0.74724833  0.63896827  1
  Cu  Cu50  1  0.65042411  0.24724833  0.63896826  1
  Cu  Cu51  1  0.65042417  0.74724836  0.63896827  1
  Cu  Cu52  1  0.34957539  0.49724827  0.63896814  1
  Cu  Cu53  1  0.34957528  0.99724827  0.63896814  1
  Cu  Cu54  1  0.84957534  0.49724829  0.63896815  1
  Cu  Cu55  1  0.84957531  0.99724827  0.63896814  1
  Cu  Cu56  1  0.15734382  0.25000006  0.52796253  1
  Cu  Cu57  1  0.15734382  0.75000006  0.52796253  1
  Cu  Cu58  1  0.65734382  0.25000006  0.52796253  1
  Cu  Cu59  1  0.65734382  0.75000006  0.52796253  1
  Cu  Cu60  1  0.34265618  0.49999994  0.52796250  1
  Cu  Cu61  1  0.34265618  0.99999994  0.52796250  1
  Cu  Cu62  1  0.84265618  0.49999994  0.52796250  1
  Cu  Cu63  1  0.84265618  0.99999994  0.52796250  1
  Cu  Cu64  1  0.15734382  0.25000006  0.41685142  1
  Cu  Cu65  1  0.15734382  0.75000006  0.41685142  1
  Cu  Cu66  1  0.65734382  0.25000006  0.41685142  1
  Cu  Cu67  1  0.65734382  0.75000006  0.41685142  1
  Cu  Cu68  1  0.34265618  0.49999994  0.41685139  1
  Cu  Cu69  1  0.34265618  0.99999994  0.41685139  1
  Cu  Cu70  1  0.84265618  0.49999994  0.41685139  1
  Cu  Cu71  1  0.84265618  0.99999994  0.41685139  1
  Au  Au72  1  0.33850936  0.25000002  0.58351807  1
  Au  Au73  1  0.33850936  0.75000002  0.58351807  1
  Au  Au74  1  0.83850936  0.25000002  0.58351807  1
  Au  Au75  1  0.83850936  0.75000002  0.58351807  1
  Au  Au76  1  0.16148997  0.49999999  0.58351807  1
  Au  Au77  1  0.16148997  0.99999999  0.58351807  1
  Au  Au78  1  0.66148997  0.49999999  0.58351807  1
  Au  Au79  1  0.66148997  0.99999999  0.58351807  1
  Au  Au80  1  0.33850936  0.25000002  0.47240696  1
  Au  Au81  1  0.33850936  0.75000002  0.47240696  1
  Au  Au82  1  0.83850936  0.25000002  0.47240696  1
  Au  Au83  1  0.83850936  0.75000002  0.47240696  1
  Au  Au84  1  0.16148997  0.49999999  0.47240696  1
  Au  Au85  1  0.16148997  0.99999999  0.47240696  1
  Au  Au86  1  0.66148997  0.49999999  0.47240696  1
  Au  Au87  1  0.66148997  0.99999999  0.47240696  1
  Au  Au88  1  0.33850936  0.25000002  0.36129585  1
  Au  Au89  1  0.33850936  0.75000002  0.36129585  1
  Au  Au90  1  0.83850936  0.25000002  0.36129585  1
  Au  Au91  1  0.83850936  0.75000002  0.36129585  1
  Au  Au92  1  0.16148997  0.49999999  0.36129585  1
  Au  Au93  1  0.16148997  0.99999999  0.36129585  1
  Au  Au94  1  0.66148997  0.49999999  0.36129585  1
  Au  Au95  1  0.66148997  0.99999999  0.36129585  1
