# generated using pymatgen
data_Ca5Pt2
_symmetry_space_group_name_H-M   'P 1'
_cell_length_a   16.51728389
_cell_length_b   10.29912123
_cell_length_c   40.66878714
_cell_angle_alpha   131.15722561
_cell_angle_beta   90.00000239
_cell_angle_gamma   95.69946039
_symmetry_Int_Tables_number   1
_chemical_formula_structural   Ca5Pt2
_chemical_formula_sum   'Ca40 Pt16'
_cell_volume   5163.32889246
_cell_formula_units_Z   8
loop_
 _symmetry_equiv_pos_site_id
 _symmetry_equiv_pos_as_xyz
  1  'x, y, z'
loop_
 _atom_site_type_symbol
 _atom_site_label
 _atom_site_symmetry_multiplicity
 _atom_site_fract_x
 _atom_site_fract_y
 _atom_site_fract_z
 _atom_site_occupancy
  Ca  Ca0  1  0.41012420  0.08306799  0.41234108  1
  Ca  Ca1  1  0.08987925  0.41693411  0.38465229  1
  Ca  Ca2  1  0.08987924  0.91693417  0.43289719  1
  Ca  Ca3  1  0.41012417  0.58306797  0.46058634  1
  Ca  Ca4  1  0.28282151  0.17882911  0.34069024  1
  Ca  Ca5  1  0.21718226  0.32117166  0.44774729  1
  Ca  Ca6  1  0.21718224  0.82117167  0.33788133  1
  Ca  Ca7  1  0.28282146  0.67882912  0.39749090  1
  Ca  Ca8  1  0.00000094  0.25000007  0.43480912  1
  Ca  Ca9  1  0.00000094  0.75000015  0.49376235  1
  Ca  Ca10  1  0.91012131  0.08306508  0.49567439  1
  Ca  Ca11  1  0.58987592  0.41693237  0.46798509  1
  Ca  Ca12  1  0.58987587  0.91693242  0.34956380  1
  Ca  Ca13  1  0.91012134  0.58306508  0.37725207  1
  Ca  Ca14  1  0.78281854  0.17882909  0.42402357  1
  Ca  Ca15  1  0.71717756  0.32117022  0.36441368  1
  Ca  Ca16  1  0.71717753  0.82117028  0.42121450  1
  Ca  Ca17  1  0.78281852  0.67882918  0.48082426  1
  Ca  Ca18  1  0.49999922  0.25000007  0.35147595  1
  Ca  Ca19  1  0.49999918  0.74999995  0.41042881  1
  Ca  Ca20  1  0.41012420  0.08306799  0.57900774  1
  Ca  Ca21  1  0.08987925  0.41693411  0.55131895  1
  Ca  Ca22  1  0.09589660  0.91436304  0.59828002  1
  Ca  Ca23  1  0.42030118  0.65419987  0.63440218  1
  Ca  Ca24  1  0.28282151  0.17882911  0.50735691  1
  Ca  Ca25  1  0.22924741  0.33252101  0.61500374  1
  Ca  Ca26  1  0.21718224  0.82117167  0.50454799  1
  Ca  Ca27  1  0.28282146  0.67882912  0.56415757  1
  Ca  Ca28  1  0.99788813  0.22838535  0.59696211  1
  Ca  Ca29  1  0.99691578  0.71078833  0.65492208  1
  Ca  Ca30  1  0.90748215  0.07633186  0.65876630  1
  Ca  Ca31  1  0.57528131  0.41620500  0.63508310  1
  Ca  Ca32  1  0.58987587  0.91693242  0.51623047  1
  Ca  Ca33  1  0.91012134  0.58306508  0.54391874  1
  Ca  Ca34  1  0.78281854  0.17882909  0.59069023  1
  Ca  Ca35  1  0.71717756  0.32117022  0.53108035  1
  Ca  Ca36  1  0.71717753  0.82117028  0.58788116  1
  Ca  Ca37  1  0.77142485  0.66981259  0.64411967  1
  Ca  Ca38  1  0.49999922  0.25000007  0.51814262  1
  Ca  Ca39  1  0.49999918  0.74999995  0.57709548  1
  Pt  Pt40  1  0.38840881  0.41603763  0.49812644  1
  Pt  Pt41  1  0.11158898  0.08396098  0.35944708  1
  Pt  Pt42  1  0.11158890  0.58396096  0.34711134  1
  Pt  Pt43  1  0.38840889  0.91603768  0.48579086  1
  Pt  Pt44  1  0.88841212  0.41603977  0.41479356  1
  Pt  Pt45  1  0.61158949  0.08396172  0.44278046  1
  Pt  Pt46  1  0.61158947  0.58396173  0.43044487  1
  Pt  Pt47  1  0.88841215  0.91603978  0.40245781  1
  Pt  Pt48  1  0.39656641  0.43369463  0.65149982  1
  Pt  Pt49  1  0.11158898  0.08396098  0.52611375  1
  Pt  Pt50  1  0.11158890  0.58396096  0.51377800  1
  Pt  Pt51  1  0.38762063  0.93391680  0.63543689  1
  Pt  Pt52  1  0.88841212  0.41603977  0.58146022  1
  Pt  Pt53  1  0.61382410  0.07560653  0.60238810  1
  Pt  Pt54  1  0.61158947  0.58396173  0.59711154  1
  Pt  Pt55  1  0.88841215  0.91603978  0.56912447  1
