# generated using pymatgen
data_Y2CuAu
_symmetry_space_group_name_H-M   'P 1'
_cell_length_a   10.13954304
_cell_length_b   14.33948732
_cell_length_c   30.41863271
_cell_angle_alpha   89.99999409
_cell_angle_beta   90.00000367
_cell_angle_gamma   90.00000100
_symmetry_Int_Tables_number   1
_chemical_formula_structural   Y2CuAu
_chemical_formula_sum   'Y32 Cu16 Au16'
_cell_volume   4422.74292381
_cell_formula_units_Z   16
loop_
 _symmetry_equiv_pos_site_id
 _symmetry_equiv_pos_as_xyz
  1  'x, y, z'
loop_
 _atom_site_type_symbol
 _atom_site_label
 _atom_site_symmetry_multiplicity
 _atom_site_fract_x
 _atom_site_fract_y
 _atom_site_fract_z
 _atom_site_occupancy
  Au  Au0  1  0.37499999  0.50000032  0.61862769  1
  Au  Au1  1  0.37500001  0.99999978  0.61862787  1
  Au  Au2  1  0.87500003  0.50000020  0.61862769  1
  Au  Au3  1  0.87499999  0.99999989  0.61862787  1
  Au  Au4  1  0.12500000  0.25000001  0.54166667  1
  Au  Au5  1  0.12500000  0.75000001  0.54166667  1
  Au  Au6  1  0.62500000  0.25000001  0.54166667  1
  Au  Au7  1  0.62500000  0.75000001  0.54166667  1
  Au  Au8  1  0.37500000  0.49999999  0.45833333  1
  Au  Au9  1  0.37500000  0.99999999  0.45833333  1
  Au  Au10  1  0.87500000  0.49999999  0.45833333  1
  Au  Au11  1  0.87500000  0.99999999  0.45833333  1
  Au  Au12  1  0.12500000  0.25000001  0.37500000  1
  Au  Au13  1  0.12500000  0.75000001  0.37500000  1
  Au  Au14  1  0.62500000  0.25000001  0.37500000  1
  Au  Au15  1  0.62500000  0.75000001  0.37500000  1
  Cu  Cu16  1  0.12500000  0.50000000  0.54166667  1
  Cu  Cu17  1  0.12500000  1.00000000  0.54166667  1
  Cu  Cu18  1  0.62500000  0.50000000  0.54166667  1
  Cu  Cu19  1  0.62500000  1.00000000  0.54166667  1
  Cu  Cu20  1  0.37500000  0.25000006  0.61850220  1
  Cu  Cu21  1  0.37500000  0.74999989  0.61850117  1
  Cu  Cu22  1  0.87500001  0.25000006  0.61850226  1
  Cu  Cu23  1  0.87500001  0.74999989  0.61850111  1
  Cu  Cu24  1  0.12500000  0.50000000  0.37500000  1
  Cu  Cu25  1  0.12500000  1.00000000  0.37500000  1
  Cu  Cu26  1  0.62500000  0.50000000  0.37500000  1
  Cu  Cu27  1  0.62500000  1.00000000  0.37500000  1
  Cu  Cu28  1  0.37500000  0.25000000  0.45833333  1
  Cu  Cu29  1  0.37500000  0.75000000  0.45833333  1
  Cu  Cu30  1  0.87500000  0.25000000  0.45833333  1
  Cu  Cu31  1  0.87500000  0.75000000  0.45833333  1
  Y  Y32  1  0.12500006  0.12507504  0.62390421  1
  Y  Y33  1  0.12500000  0.62507732  0.62390452  1
  Y  Y34  1  0.62499998  0.12507502  0.62390421  1
  Y  Y35  1  0.62500003  0.62507731  0.62390452  1
  Y  Y36  1  0.37500001  0.12499988  0.54166666  1
  Y  Y37  1  0.37500001  0.62499988  0.54166666  1
  Y  Y38  1  0.87500001  0.12499988  0.54166666  1
  Y  Y39  1  0.87500001  0.62499988  0.54166666  1
  Y  Y40  1  0.37499998  0.37500013  0.54166667  1
  Y  Y41  1  0.37499998  0.87500013  0.54166667  1
  Y  Y42  1  0.87499998  0.37500013  0.54166667  1
  Y  Y43  1  0.87499998  0.87500013  0.54166667  1
  Y  Y44  1  0.12500001  0.37492458  0.62390410  1
  Y  Y45  1  0.12499996  0.87492298  0.62390405  1
  Y  Y46  1  0.62500000  0.37492459  0.62390409  1
  Y  Y47  1  0.62500005  0.87492299  0.62390405  1
  Y  Y48  1  0.12500000  0.12499988  0.45833334  1
  Y  Y49  1  0.12500000  0.62499988  0.45833334  1
  Y  Y50  1  0.62500000  0.12499988  0.45833334  1
  Y  Y51  1  0.62500000  0.62499988  0.45833334  1
  Y  Y52  1  0.37500001  0.12499988  0.37499999  1
  Y  Y53  1  0.37500001  0.62499988  0.37499999  1
  Y  Y54  1  0.87500001  0.12499988  0.37499999  1
  Y  Y55  1  0.87500001  0.62499988  0.37499999  1
  Y  Y56  1  0.37499998  0.37500013  0.37500000  1
  Y  Y57  1  0.37499998  0.87500013  0.37500000  1
  Y  Y58  1  0.87499998  0.37500013  0.37500000  1
  Y  Y59  1  0.87499998  0.87500013  0.37500000  1
  Y  Y60  1  0.12500001  0.37500012  0.45833333  1
  Y  Y61  1  0.12500001  0.87500012  0.45833333  1
  Y  Y62  1  0.62500001  0.37500012  0.45833333  1
  Y  Y63  1  0.62500001  0.87500012  0.45833333  1
