# generated using pymatgen
data_Y2ZnCu
_symmetry_space_group_name_H-M   'P 1'
_cell_length_a   10.10310949
_cell_length_b   14.28792850
_cell_length_c   30.30933640
_cell_angle_alpha   89.99998873
_cell_angle_beta   90.00001497
_cell_angle_gamma   89.99999206
_symmetry_Int_Tables_number   1
_chemical_formula_structural   Y2ZnCu
_chemical_formula_sum   'Y32 Zn16 Cu16'
_cell_volume   4375.22866517
_cell_formula_units_Z   16
loop_
 _symmetry_equiv_pos_site_id
 _symmetry_equiv_pos_as_xyz
  1  'x, y, z'
loop_
 _atom_site_type_symbol
 _atom_site_label
 _atom_site_symmetry_multiplicity
 _atom_site_fract_x
 _atom_site_fract_y
 _atom_site_fract_z
 _atom_site_occupancy
  Cu  Cu0  1  0.37499993  0.99999829  0.61526967  1
  Cu  Cu1  1  0.37499996  0.50000169  0.61527027  1
  Cu  Cu2  1  0.87500009  0.99999830  0.61526981  1
  Cu  Cu3  1  0.87500005  0.50000169  0.61527027  1
  Cu  Cu4  1  0.12500000  0.25000000  0.54166667  1
  Cu  Cu5  1  0.12500000  0.75000000  0.54166667  1
  Cu  Cu6  1  0.62500000  0.25000000  0.54166667  1
  Cu  Cu7  1  0.62500000  0.75000000  0.54166667  1
  Cu  Cu8  1  0.37500000  0.00000000  0.45833333  1
  Cu  Cu9  1  0.37500000  0.50000000  0.45833333  1
  Cu  Cu10  1  0.87500000  0.00000000  0.45833333  1
  Cu  Cu11  1  0.87500000  0.50000000  0.45833333  1
  Cu  Cu12  1  0.12500000  0.25000000  0.37500000  1
  Cu  Cu13  1  0.12500000  0.75000000  0.37500000  1
  Cu  Cu14  1  0.62500000  0.25000000  0.37500000  1
  Cu  Cu15  1  0.62500000  0.75000000  0.37500000  1
  Y  Y16  1  0.12499979  0.12521751  0.62257799  1
  Y  Y17  1  0.12500005  0.62521907  0.62257762  1
  Y  Y18  1  0.62500025  0.12521755  0.62257802  1
  Y  Y19  1  0.62500002  0.62521897  0.62257779  1
  Y  Y20  1  0.37500000  0.12499934  0.54166666  1
  Y  Y21  1  0.37500000  0.62499934  0.54166666  1
  Y  Y22  1  0.87500000  0.12499934  0.54166666  1
  Y  Y23  1  0.87500000  0.62499934  0.54166666  1
  Y  Y24  1  0.37499997  0.37500066  0.54166667  1
  Y  Y25  1  0.37499997  0.87500066  0.54166667  1
  Y  Y26  1  0.87499997  0.37500066  0.54166667  1
  Y  Y27  1  0.87499997  0.87500066  0.54166667  1
  Y  Y28  1  0.12500008  0.37478276  0.62257794  1
  Y  Y29  1  0.12499980  0.87478044  0.62257781  1
  Y  Y30  1  0.62499998  0.37478276  0.62257797  1
  Y  Y31  1  0.62500025  0.87478054  0.62257795  1
  Y  Y32  1  0.12500001  0.12499933  0.45833333  1
  Y  Y33  1  0.12500001  0.62499933  0.45833333  1
  Y  Y34  1  0.62500001  0.12499933  0.45833333  1
  Y  Y35  1  0.62500001  0.62499933  0.45833333  1
  Y  Y36  1  0.37500000  0.12499934  0.37500000  1
  Y  Y37  1  0.37500000  0.62499934  0.37500000  1
  Y  Y38  1  0.87500000  0.12499934  0.37500000  1
  Y  Y39  1  0.87500000  0.62499934  0.37500000  1
  Y  Y40  1  0.37499997  0.37500066  0.37500000  1
  Y  Y41  1  0.37499997  0.87500066  0.37500000  1
  Y  Y42  1  0.87499997  0.37500066  0.37500000  1
  Y  Y43  1  0.87499997  0.87500066  0.37500000  1
  Y  Y44  1  0.12500004  0.37500067  0.45833334  1
  Y  Y45  1  0.12500004  0.87500067  0.45833334  1
  Y  Y46  1  0.62500004  0.37500067  0.45833334  1
  Y  Y47  1  0.62500004  0.87500067  0.45833334  1
  Zn  Zn48  1  0.12500000  0.00000000  0.54166667  1
  Zn  Zn49  1  0.12500000  0.50000000  0.54166667  1
  Zn  Zn50  1  0.62500000  0.00000000  0.54166667  1
  Zn  Zn51  1  0.62500000  0.50000000  0.54166667  1
  Zn  Zn52  1  0.37500002  0.25000012  0.62585348  1
  Zn  Zn53  1  0.37500012  0.74999978  0.62585294  1
  Zn  Zn54  1  0.87500006  0.25000029  0.62585347  1
  Zn  Zn55  1  0.87499996  0.74999964  0.62585298  1
  Zn  Zn56  1  0.12500000  0.00000000  0.37500000  1
  Zn  Zn57  1  0.12500000  0.50000000  0.37500000  1
  Zn  Zn58  1  0.62500000  0.00000000  0.37500000  1
  Zn  Zn59  1  0.62500000  0.50000000  0.37500000  1
  Zn  Zn60  1  0.37499999  0.25000000  0.45833333  1
  Zn  Zn61  1  0.37499999  0.75000000  0.45833333  1
  Zn  Zn62  1  0.87499999  0.25000000  0.45833333  1
  Zn  Zn63  1  0.87499999  0.75000000  0.45833333  1
