# generated using pymatgen
data_MgCuSn
_symmetry_space_group_name_H-M   'P 1'
_cell_length_a   8.92605284
_cell_length_b   8.92604891
_cell_length_c   37.87001940
_cell_angle_alpha   89.99996258
_cell_angle_beta   89.99998427
_cell_angle_gamma   90.00000032
_symmetry_Int_Tables_number   1
_chemical_formula_structural   MgCuSn
_chemical_formula_sum   'Mg16 Cu16 Sn16'
_cell_volume   3017.27047621
_cell_formula_units_Z   16
loop_
 _symmetry_equiv_pos_site_id
 _symmetry_equiv_pos_as_xyz
  1  'x, y, z'
loop_
 _atom_site_type_symbol
 _atom_site_label
 _atom_site_symmetry_multiplicity
 _atom_site_fract_x
 _atom_site_fract_y
 _atom_site_fract_z
 _atom_site_occupancy
  Cu  Cu0  1  0.50000000  0.49999999  0.48718172  1
  Cu  Cu1  1  0.50000000  0.99999999  0.48718172  1
  Cu  Cu2  1  1.00000000  0.49999999  0.48718172  1
  Cu  Cu3  1  1.00000000  0.99999999  0.48718172  1
  Cu  Cu4  1  0.25000003  0.24999996  0.40384842  1
  Cu  Cu5  1  0.25000003  0.74999996  0.40384842  1
  Cu  Cu6  1  0.75000003  0.24999996  0.40384842  1
  Cu  Cu7  1  0.75000003  0.74999996  0.40384842  1
  Cu  Cu8  1  0.49999993  0.49999984  0.64939432  1
  Cu  Cu9  1  0.49999994  0.99999985  0.64939395  1
  Cu  Cu10  1  0.99999993  0.49999973  0.64939410  1
  Cu  Cu11  1  0.99999996  0.00000007  0.64939433  1
  Cu  Cu12  1  0.25000003  0.24999996  0.57051509  1
  Cu  Cu13  1  0.25000003  0.74999996  0.57051509  1
  Cu  Cu14  1  0.75000003  0.24999996  0.57051509  1
  Cu  Cu15  1  0.75000003  0.74999996  0.57051509  1
  Mg  Mg16  1  0.49999996  0.24999998  0.36218171  1
  Mg  Mg17  1  0.49999996  0.74999998  0.36218171  1
  Mg  Mg18  1  0.99999996  0.24999998  0.36218171  1
  Mg  Mg19  1  0.99999996  0.74999998  0.36218171  1
  Mg  Mg20  1  0.24999997  0.49999998  0.44551508  1
  Mg  Mg21  1  0.24999997  0.99999998  0.44551508  1
  Mg  Mg22  1  0.74999997  0.49999998  0.44551508  1
  Mg  Mg23  1  0.74999997  0.99999998  0.44551508  1
  Mg  Mg24  1  0.49999996  0.24999998  0.52884838  1
  Mg  Mg25  1  0.49999996  0.74999998  0.52884838  1
  Mg  Mg26  1  0.99999996  0.24999998  0.52884838  1
  Mg  Mg27  1  0.99999996  0.74999998  0.52884838  1
  Mg  Mg28  1  0.24999965  0.49999981  0.60975010  1
  Mg  Mg29  1  0.25000074  0.99999998  0.60975011  1
  Mg  Mg30  1  0.75000037  0.49999997  0.60975010  1
  Mg  Mg31  1  0.74999929  0.99999982  0.60975011  1
  Sn  Sn32  1  0.24999998  0.00000005  0.36218182  1
  Sn  Sn33  1  0.24999998  0.50000005  0.36218182  1
  Sn  Sn34  1  0.74999998  0.00000005  0.36218182  1
  Sn  Sn35  1  0.74999998  0.50000005  0.36218182  1
  Sn  Sn36  1  0.00000005  0.25000003  0.44551505  1
  Sn  Sn37  1  0.00000005  0.75000003  0.44551505  1
  Sn  Sn38  1  0.50000005  0.25000003  0.44551505  1
  Sn  Sn39  1  0.50000005  0.75000003  0.44551505  1
  Sn  Sn40  1  0.24999998  0.00000005  0.52884849  1
  Sn  Sn41  1  0.24999998  0.50000005  0.52884849  1
  Sn  Sn42  1  0.74999998  0.00000005  0.52884849  1
  Sn  Sn43  1  0.74999998  0.50000005  0.52884849  1
  Sn  Sn44  1  0.00000002  0.25000073  0.61441266  1
  Sn  Sn45  1  0.99999997  0.74999891  0.61441263  1
  Sn  Sn46  1  0.49999989  0.24999857  0.61441277  1
  Sn  Sn47  1  0.50000003  0.75000122  0.61441271  1
