# generated using pymatgen
data_Zr6Te2Pt
_symmetry_space_group_name_H-M   'P 1'
_cell_length_a   13.57854231
_cell_length_b   8.71013372
_cell_length_c   45.54880209
_cell_angle_alpha   64.16483827
_cell_angle_beta   90.00000000
_cell_angle_gamma   38.78807646
_symmetry_Int_Tables_number   1
_chemical_formula_structural   Zr6Te2Pt
_chemical_formula_sum   'Zr24 Te8 Pt4'
_cell_volume   2424.32494737
_cell_formula_units_Z   4
loop_
 _symmetry_equiv_pos_site_id
 _symmetry_equiv_pos_as_xyz
  1  'x, y, z'
loop_
 _atom_site_type_symbol
 _atom_site_label
 _atom_site_symmetry_multiplicity
 _atom_site_fract_x
 _atom_site_fract_y
 _atom_site_fract_z
 _atom_site_occupancy
  Zr  Zr0  1  0.99999981  0.75090030  0.37723980  1
  Zr  Zr1  1  0.24909974  0.75090066  0.37723976  1
  Zr  Zr2  1  0.75090046  0.49819920  0.39829821  1
  Zr  Zr3  1  0.00000017  0.40791533  0.36415521  1
  Zr  Zr4  1  0.59208436  0.40791537  0.36415519  1
  Zr  Zr5  1  0.40791638  0.18416715  0.38280090  1
  Zr  Zr6  1  0.99999981  0.75090030  0.46057313  1
  Zr  Zr7  1  0.24909974  0.75090066  0.46057310  1
  Zr  Zr8  1  0.75090046  0.49819920  0.48163155  1
  Zr  Zr9  1  0.00000017  0.40791533  0.44748854  1
  Zr  Zr10  1  0.59208436  0.40791537  0.44748852  1
  Zr  Zr11  1  0.40791638  0.18416715  0.46613423  1
  Zr  Zr12  1  0.99999981  0.75090030  0.54390647  1
  Zr  Zr13  1  0.24909974  0.75090066  0.54390643  1
  Zr  Zr14  1  0.75090046  0.49819920  0.56496488  1
  Zr  Zr15  1  0.00000017  0.40791533  0.53082188  1
  Zr  Zr16  1  0.59208436  0.40791537  0.53082186  1
  Zr  Zr17  1  0.40791638  0.18416715  0.54946757  1
  Zr  Zr18  1  0.00775263  0.73400175  0.62585138  1
  Zr  Zr19  1  0.25809605  0.73417923  0.62588976  1
  Zr  Zr20  1  0.74825083  0.50351958  0.63968581  1
  Zr  Zr21  1  0.98182107  0.43867598  0.60876538  1
  Zr  Zr22  1  0.57956930  0.43859581  0.60874039  1
  Zr  Zr23  1  0.38198876  0.23596944  0.62555969  1
  Te  Te24  1  0.66666809  0.99999866  0.35648159  1
  Te  Te25  1  0.33333266  0.99999985  0.35648149  1
  Te  Te26  1  0.66666809  0.99999866  0.43981492  1
  Te  Te27  1  0.33333266  0.99999985  0.43981482  1
  Te  Te28  1  0.66666809  0.99999866  0.52314825  1
  Te  Te29  1  0.33333266  0.99999985  0.52314816  1
  Te  Te30  1  0.68943475  0.95760919  0.61532847  1
  Te  Te31  1  0.35276092  0.95797473  0.61521474  1
  Pt  Pt32  1  0.99999834  0.00000348  0.39814785  1
  Pt  Pt33  1  0.99999834  0.00000348  0.48148118  1
  Pt  Pt34  1  0.99999834  0.00000348  0.56481452  1
  Pt  Pt35  1  0.00180053  0.99584439  0.64505038  1
