# generated using pymatgen
data_NaCd2Pd
_symmetry_space_group_name_H-M   'P 1'
_cell_length_a   9.78664258
_cell_length_b   9.78664041
_cell_length_c   35.95842616
_cell_angle_alpha   90.00003079
_cell_angle_beta   89.99996083
_cell_angle_gamma   60.00000288
_symmetry_Int_Tables_number   1
_chemical_formula_structural   NaCd2Pd
_chemical_formula_sum   'Na12 Cd24 Pd12'
_cell_volume   2982.62517006
_cell_formula_units_Z   12
loop_
 _symmetry_equiv_pos_site_id
 _symmetry_equiv_pos_as_xyz
  1  'x, y, z'
loop_
 _atom_site_type_symbol
 _atom_site_label
 _atom_site_symmetry_multiplicity
 _atom_site_fract_x
 _atom_site_fract_y
 _atom_site_fract_z
 _atom_site_occupancy
  Cd  Cd0  1  0.20833322  0.08333332  0.34442082  1
  Cd  Cd1  1  0.20833322  0.58333332  0.34442082  1
  Cd  Cd2  1  0.70833322  0.08333332  0.34442082  1
  Cd  Cd3  1  0.70833322  0.58333332  0.34442082  1
  Cd  Cd4  1  0.04166664  0.41666668  0.39997637  1
  Cd  Cd5  1  0.04166664  0.91666668  0.39997637  1
  Cd  Cd6  1  0.54166664  0.41666668  0.39997637  1
  Cd  Cd7  1  0.54166664  0.91666668  0.39997637  1
  Cd  Cd8  1  0.37499993  0.24999999  0.45553202  1
  Cd  Cd9  1  0.37499993  0.74999999  0.45553202  1
  Cd  Cd10  1  0.87499993  0.24999999  0.45553202  1
  Cd  Cd11  1  0.87499993  0.74999999  0.45553202  1
  Cd  Cd12  1  0.20833320  0.08333334  0.51108748  1
  Cd  Cd13  1  0.20833320  0.58333334  0.51108748  1
  Cd  Cd14  1  0.70833320  0.08333334  0.51108748  1
  Cd  Cd15  1  0.70833320  0.58333334  0.51108748  1
  Cd  Cd16  1  0.04166665  0.41666665  0.56664304  1
  Cd  Cd17  1  0.04166665  0.91666665  0.56664304  1
  Cd  Cd18  1  0.54166665  0.41666665  0.56664304  1
  Cd  Cd19  1  0.54166665  0.91666665  0.56664304  1
  Cd  Cd20  1  0.37494303  0.25011274  0.64778778  1
  Cd  Cd21  1  0.37494292  0.75011287  0.64778782  1
  Cd  Cd22  1  0.87494306  0.25011277  0.64778779  1
  Cd  Cd23  1  0.87494297  0.75011283  0.64778782  1
  Na  Na24  1  0.37499993  0.25000000  0.37219869  1
  Na  Na25  1  0.37499993  0.75000000  0.37219869  1
  Na  Na26  1  0.87499993  0.25000000  0.37219869  1
  Na  Na27  1  0.87499993  0.75000000  0.37219869  1
  Na  Na28  1  0.04166664  0.41666666  0.48330971  1
  Na  Na29  1  0.04166664  0.91666666  0.48330971  1
  Na  Na30  1  0.54166664  0.41666666  0.48330971  1
  Na  Na31  1  0.54166664  0.91666666  0.48330971  1
  Na  Na32  1  0.20826444  0.08346954  0.60694499  1
  Na  Na33  1  0.20826446  0.58346963  0.60694501  1
  Na  Na34  1  0.70826450  0.08346956  0.60694500  1
  Na  Na35  1  0.70826445  0.58346958  0.60694497  1
  Pd  Pd36  1  0.20833319  0.08333334  0.42775414  1
  Pd  Pd37  1  0.20833319  0.58333334  0.42775414  1
  Pd  Pd38  1  0.70833319  0.08333334  0.42775414  1
  Pd  Pd39  1  0.70833319  0.58333334  0.42775414  1
  Pd  Pd40  1  0.37499991  0.25000001  0.53886534  1
  Pd  Pd41  1  0.37499991  0.75000001  0.53886534  1
  Pd  Pd42  1  0.87499991  0.25000001  0.53886534  1
  Pd  Pd43  1  0.87499991  0.75000001  0.53886534  1
  Pd  Pd44  1  0.04160098  0.41679642  0.64302877  1
  Pd  Pd45  1  0.04160105  0.91679637  0.64302876  1
  Pd  Pd46  1  0.54160101  0.41679644  0.64302877  1
  Pd  Pd47  1  0.54160104  0.91679638  0.64302877  1
