# generated using pymatgen
data_Y2IrAu
_symmetry_space_group_name_H-M   'P 1'
_cell_length_a   10.01769207
_cell_length_b   10.01769150
_cell_length_c   32.84520196
_cell_angle_alpha   85.62699058
_cell_angle_beta   85.62699743
_cell_angle_gamma   60.00000136
_symmetry_Int_Tables_number   1
_chemical_formula_structural   Y2IrAu
_chemical_formula_sum   'Y24 Ir12 Au12'
_cell_volume   2843.46597593
_cell_formula_units_Z   12
loop_
 _symmetry_equiv_pos_site_id
 _symmetry_equiv_pos_as_xyz
  1  'x, y, z'
loop_
 _atom_site_type_symbol
 _atom_site_label
 _atom_site_symmetry_multiplicity
 _atom_site_fract_x
 _atom_site_fract_y
 _atom_site_fract_z
 _atom_site_occupancy
  Au  Au0  1  0.07533803  0.02343750  0.35749655  1
  Au  Au1  1  0.07533803  0.52343750  0.35749655  1
  Au  Au2  1  0.57533803  0.02343750  0.35749655  1
  Au  Au3  1  0.57533803  0.52343750  0.35749655  1
  Au  Au4  1  0.45216555  0.33593750  0.48100056  1
  Au  Au5  1  0.45216555  0.83593750  0.48100056  1
  Au  Au6  1  0.95216555  0.33593750  0.48100056  1
  Au  Au7  1  0.95216555  0.83593750  0.48100056  1
  Au  Au8  1  0.32606904  0.14843750  0.59294468  1
  Au  Au9  1  0.32606904  0.64843750  0.59294468  1
  Au  Au10  1  0.82606904  0.14843750  0.59294468  1
  Au  Au11  1  0.82606904  0.64843750  0.59294468  1
  Ir  Ir12  1  0.26375179  0.17968750  0.40762066  1
  Ir  Ir13  1  0.26375179  0.67968750  0.40762066  1
  Ir  Ir14  1  0.76375179  0.17968750  0.40762066  1
  Ir  Ir15  1  0.76375179  0.67968750  0.40762066  1
  Ir  Ir16  1  0.14057931  0.49218750  0.55438047  1
  Ir  Ir17  1  0.14057931  0.99218750  0.55438047  1
  Ir  Ir18  1  0.64057931  0.49218750  0.55438047  1
  Ir  Ir19  1  0.64057931  0.99218750  0.55438047  1
  Ir  Ir20  1  0.96844170  0.30836321  0.65547940  1
  Ir  Ir21  1  0.96844170  0.80836318  0.65547940  1
  Ir  Ir22  1  0.46844170  0.30836316  0.65547938  1
  Ir  Ir23  1  0.46844171  0.80836320  0.65547939  1
  Y  Y24  1  0.42100693  0.35156250  0.38833855  1
  Y  Y25  1  0.42100693  0.85156250  0.38833855  1
  Y  Y26  1  0.92100693  0.35156250  0.38833855  1
  Y  Y27  1  0.92100693  0.85156250  0.38833855  1
  Y  Y28  1  0.23259317  0.19531250  0.31495865  1
  Y  Y29  1  0.23259317  0.69531250  0.31495865  1
  Y  Y30  1  0.73259317  0.19531250  0.31495865  1
  Y  Y31  1  0.73259317  0.69531250  0.31495865  1
  Y  Y32  1  0.29491042  0.16406250  0.50028267  1
  Y  Y33  1  0.29491042  0.66406250  0.50028267  1
  Y  Y34  1  0.79491042  0.16406250  0.50028267  1
  Y  Y35  1  0.79491042  0.66406250  0.50028267  1
  Y  Y36  1  0.10649666  0.00781250  0.45015856  1
  Y  Y37  1  0.10649666  0.50781250  0.45015856  1
  Y  Y38  1  0.60649666  0.00781250  0.45015856  1
  Y  Y39  1  0.60649666  0.50781250  0.45015856  1
  Y  Y40  1  0.14048943  0.47626433  0.64234355  1
  Y  Y41  1  0.14048948  0.97626433  0.64234354  1
  Y  Y42  1  0.64048942  0.47626433  0.64234355  1
  Y  Y43  1  0.64048940  0.97626431  0.64234355  1
  Y  Y44  1  0.48332418  0.32031250  0.57366257  1
  Y  Y45  1  0.48332418  0.82031250  0.57366257  1
  Y  Y46  1  0.98332418  0.32031250  0.57366257  1
  Y  Y47  1  0.98332418  0.82031250  0.57366257  1
