# generated using pymatgen
data_Sr2PdAu
_symmetry_space_group_name_H-M   'P 1'
_cell_length_a   10.91659758
_cell_length_b   10.91659591
_cell_length_c   38.59599746
_cell_angle_alpha   89.99997176
_cell_angle_beta   89.99999034
_cell_angle_gamma   89.99998992
_symmetry_Int_Tables_number   1
_chemical_formula_structural   Sr2PdAu
_chemical_formula_sum   'Sr32 Pd16 Au16'
_cell_volume   4599.56547039
_cell_formula_units_Z   16
loop_
 _symmetry_equiv_pos_site_id
 _symmetry_equiv_pos_as_xyz
  1  'x, y, z'
loop_
 _atom_site_type_symbol
 _atom_site_label
 _atom_site_symmetry_multiplicity
 _atom_site_fract_x
 _atom_site_fract_y
 _atom_site_fract_z
 _atom_site_occupancy
  Au  Au0  1  0.00000015  0.00000000  0.36830652  1
  Au  Au1  1  0.00000015  0.50000000  0.36830652  1
  Au  Au2  1  0.50000015  0.00000000  0.36830652  1
  Au  Au3  1  0.50000015  0.50000000  0.36830652  1
  Au  Au4  1  0.25000010  0.24999998  0.46830655  1
  Au  Au5  1  0.25000010  0.74999998  0.46830655  1
  Au  Au6  1  0.75000010  0.24999998  0.46830655  1
  Au  Au7  1  0.75000010  0.74999998  0.46830655  1
  Au  Au8  1  0.00000015  0.00000000  0.56830652  1
  Au  Au9  1  0.00000015  0.50000000  0.56830652  1
  Au  Au10  1  0.50000015  0.00000000  0.56830652  1
  Au  Au11  1  0.50000015  0.50000000  0.56830652  1
  Au  Au12  1  0.25000009  0.24999994  0.66289775  1
  Au  Au13  1  0.25000008  0.74999994  0.66289774  1
  Au  Au14  1  0.75000017  0.24999995  0.66289774  1
  Au  Au15  1  0.75000019  0.74999993  0.66289775  1
  Pd  Pd16  1  0.00000017  0.00000002  0.46830653  1
  Pd  Pd17  1  0.00000017  0.50000002  0.46830653  1
  Pd  Pd18  1  0.50000017  0.00000002  0.46830653  1
  Pd  Pd19  1  0.50000017  0.50000002  0.46830653  1
  Pd  Pd20  1  0.25000010  0.24999998  0.36830655  1
  Pd  Pd21  1  0.25000010  0.74999998  0.36830655  1
  Pd  Pd22  1  0.75000010  0.24999998  0.36830655  1
  Pd  Pd23  1  0.75000010  0.74999998  0.36830655  1
  Pd  Pd24  1  0.99999998  0.99999988  0.65312218  1
  Pd  Pd25  1  0.99999997  0.49999991  0.65312234  1
  Pd  Pd26  1  0.49999998  0.99999988  0.65312228  1
  Pd  Pd27  1  0.49999999  0.49999989  0.65312216  1
  Pd  Pd28  1  0.25000010  0.24999998  0.56830655  1
  Pd  Pd29  1  0.25000010  0.74999998  0.56830655  1
  Pd  Pd30  1  0.75000010  0.24999998  0.56830655  1
  Pd  Pd31  1  0.75000010  0.74999998  0.56830655  1
  Sr  Sr32  1  0.00000009  0.25000000  0.31830659  1
  Sr  Sr33  1  0.00000009  0.75000000  0.31830659  1
  Sr  Sr34  1  0.50000009  0.25000000  0.31830659  1
  Sr  Sr35  1  0.50000009  0.75000000  0.31830659  1
  Sr  Sr36  1  0.24999999  0.49999998  0.31830657  1
  Sr  Sr37  1  0.24999999  0.99999998  0.31830657  1
  Sr  Sr38  1  0.74999999  0.49999998  0.31830657  1
  Sr  Sr39  1  0.74999999  0.99999998  0.31830657  1
  Sr  Sr40  1  0.25000017  0.00000004  0.41830653  1
  Sr  Sr41  1  0.25000017  0.50000004  0.41830653  1
  Sr  Sr42  1  0.75000017  0.00000004  0.41830653  1
  Sr  Sr43  1  0.75000017  0.50000004  0.41830653  1
  Sr  Sr44  1  0.00000009  0.24999998  0.41830656  1
  Sr  Sr45  1  0.00000009  0.74999998  0.41830656  1
  Sr  Sr46  1  0.50000009  0.24999998  0.41830656  1
  Sr  Sr47  1  0.50000009  0.74999998  0.41830656  1
  Sr  Sr48  1  0.00000009  0.25000000  0.51830659  1
  Sr  Sr49  1  0.00000009  0.75000000  0.51830659  1
  Sr  Sr50  1  0.50000009  0.25000000  0.51830659  1
  Sr  Sr51  1  0.50000009  0.75000000  0.51830659  1
  Sr  Sr52  1  0.24999999  0.49999998  0.51830657  1
  Sr  Sr53  1  0.24999999  0.99999998  0.51830657  1
  Sr  Sr54  1  0.74999999  0.49999998  0.51830657  1
  Sr  Sr55  1  0.74999999  0.99999998  0.51830657  1
  Sr  Sr56  1  0.25000040  0.99999988  0.62080671  1
  Sr  Sr57  1  0.25000084  0.49999992  0.62080672  1
  Sr  Sr58  1  0.75000031  0.99999992  0.62080671  1
  Sr  Sr59  1  0.74999988  0.49999988  0.62080672  1
  Sr  Sr60  1  0.99999999  0.24999974  0.62080672  1
  Sr  Sr61  1  0.00000003  0.75000026  0.62080671  1
  Sr  Sr62  1  0.50000002  0.25000018  0.62080674  1
  Sr  Sr63  1  0.49999997  0.74999984  0.62080673  1
