# generated using pymatgen
data_CaCd2Pd
_symmetry_space_group_name_H-M   'P 1'
_cell_length_a   11.38428489
_cell_length_b   8.30340275
_cell_length_c   40.78332402
_cell_angle_alpha   90.00000131
_cell_angle_beta   89.99963411
_cell_angle_gamma   89.99999862
_symmetry_Int_Tables_number   1
_chemical_formula_structural   CaCd2Pd
_chemical_formula_sum   'Ca16 Cd32 Pd16'
_cell_volume   3855.17838839
_cell_formula_units_Z   16
loop_
 _symmetry_equiv_pos_site_id
 _symmetry_equiv_pos_as_xyz
  1  'x, y, z'
loop_
 _atom_site_type_symbol
 _atom_site_label
 _atom_site_symmetry_multiplicity
 _atom_site_fract_x
 _atom_site_fract_y
 _atom_site_fract_z
 _atom_site_occupancy
  Ca  Ca0  1  0.30062696  0.75000000  0.49328823  1
  Ca  Ca1  1  0.80062696  0.75000000  0.49328823  1
  Ca  Ca2  1  0.44937303  0.75000000  0.39328825  1
  Ca  Ca3  1  0.94937303  0.75000000  0.39328825  1
  Ca  Ca4  1  0.19937306  0.25000001  0.30671179  1
  Ca  Ca5  1  0.69937306  0.25000001  0.30671179  1
  Ca  Ca6  1  0.05062700  0.25000000  0.40671174  1
  Ca  Ca7  1  0.55062700  0.25000000  0.40671174  1
  Ca  Ca8  1  0.30274675  0.75000003  0.68754241  1
  Ca  Ca9  1  0.80274675  0.74999999  0.68754241  1
  Ca  Ca10  1  0.44937303  0.75000000  0.59328825  1
  Ca  Ca11  1  0.94937303  0.75000000  0.59328825  1
  Ca  Ca12  1  0.19937306  0.25000001  0.50671179  1
  Ca  Ca13  1  0.69937306  0.25000001  0.50671179  1
  Ca  Ca14  1  0.05062700  0.25000000  0.60671174  1
  Ca  Ca15  1  0.55062700  0.25000000  0.60671174  1
  Cd  Cd16  1  0.04757268  0.94453616  0.46557320  1
  Cd  Cd17  1  0.54757268  0.94453616  0.46557320  1
  Cd  Cd18  1  0.20242747  0.55546356  0.36557328  1
  Cd  Cd19  1  0.70242747  0.55546356  0.36557328  1
  Cd  Cd20  1  0.45242731  0.44453612  0.33442681  1
  Cd  Cd21  1  0.95242731  0.44453612  0.33442681  1
  Cd  Cd22  1  0.29757257  0.05546371  0.43442671  1
  Cd  Cd23  1  0.79757257  0.05546371  0.43442671  1
  Cd  Cd24  1  0.45242730  0.05546392  0.33442681  1
  Cd  Cd25  1  0.95242730  0.05546392  0.33442681  1
  Cd  Cd26  1  0.29757256  0.44453630  0.43442671  1
  Cd  Cd27  1  0.79757256  0.44453630  0.43442671  1
  Cd  Cd28  1  0.04757268  0.55546381  0.46557320  1
  Cd  Cd29  1  0.54757268  0.55546381  0.46557320  1
  Cd  Cd30  1  0.20242747  0.94453642  0.36557328  1
  Cd  Cd31  1  0.70242747  0.94453642  0.36557328  1
  Cd  Cd32  1  0.04916833  0.94687405  0.66671740  1
  Cd  Cd33  1  0.54916833  0.94687405  0.66671740  1
  Cd  Cd34  1  0.20242747  0.55546356  0.56557328  1
  Cd  Cd35  1  0.70242747  0.55546356  0.56557328  1
  Cd  Cd36  1  0.45242731  0.44453612  0.53442681  1
  Cd  Cd37  1  0.95242731  0.44453612  0.53442681  1
  Cd  Cd38  1  0.29757257  0.05546371  0.63442671  1
  Cd  Cd39  1  0.79757257  0.05546371  0.63442671  1
  Cd  Cd40  1  0.45242730  0.05546392  0.53442681  1
  Cd  Cd41  1  0.95242730  0.05546392  0.53442681  1
  Cd  Cd42  1  0.29757256  0.44453630  0.63442671  1
  Cd  Cd43  1  0.79757256  0.44453630  0.63442671  1
  Cd  Cd44  1  0.04916834  0.55312595  0.66671743  1
  Cd  Cd45  1  0.54916833  0.55312596  0.66671742  1
  Cd  Cd46  1  0.20242747  0.94453642  0.56557328  1
  Cd  Cd47  1  0.70242747  0.94453642  0.56557328  1
  Pd  Pd48  1  0.19126113  0.75000000  0.42438870  1
  Pd  Pd49  1  0.69126113  0.75000000  0.42438870  1
  Pd  Pd50  1  0.05873899  0.75000000  0.32438871  1
  Pd  Pd51  1  0.55873899  0.75000000  0.32438871  1
  Pd  Pd52  1  0.30873877  0.25000000  0.37561130  1
  Pd  Pd53  1  0.80873877  0.25000000  0.37561130  1
  Pd  Pd54  1  0.44126102  0.25000000  0.47561129  1
  Pd  Pd55  1  0.94126102  0.25000000  0.47561129  1
  Pd  Pd56  1  0.19126113  0.75000000  0.62438870  1
  Pd  Pd57  1  0.69126113  0.75000000  0.62438870  1
  Pd  Pd58  1  0.05873899  0.75000000  0.52438871  1
  Pd  Pd59  1  0.55873899  0.75000000  0.52438871  1
  Pd  Pd60  1  0.30873877  0.25000000  0.57561130  1
  Pd  Pd61  1  0.80873877  0.25000000  0.57561130  1
  Pd  Pd62  1  0.44849062  0.25000002  0.67068512  1
  Pd  Pd63  1  0.94849062  0.25000002  0.67068511  1
