# generated using pymatgen
data_Sr2PdAu
_symmetry_space_group_name_H-M   'P 1'
_cell_length_a   10.91659757
_cell_length_b   10.91659971
_cell_length_c   35.79244617
_cell_angle_alpha   85.62698449
_cell_angle_beta   85.62698858
_cell_angle_gamma   59.99999277
_symmetry_Int_Tables_number   1
_chemical_formula_structural   Sr2PdAu
_chemical_formula_sum   'Sr24 Pd12 Au12'
_cell_volume   3679.65237497
_cell_formula_units_Z   12
loop_
 _symmetry_equiv_pos_site_id
 _symmetry_equiv_pos_as_xyz
  1  'x, y, z'
loop_
 _atom_site_type_symbol
 _atom_site_label
 _atom_site_symmetry_multiplicity
 _atom_site_fract_x
 _atom_site_fract_y
 _atom_site_fract_z
 _atom_site_occupancy
  Au  Au0  1  0.07753111  0.39843751  0.35567404  1
  Au  Au1  1  0.07753111  0.89843751  0.35567404  1
  Au  Au2  1  0.57753111  0.39843751  0.35567404  1
  Au  Au3  1  0.57753111  0.89843751  0.35567404  1
  Au  Au4  1  0.45143469  0.21093751  0.49087397  1
  Au  Au5  1  0.45143469  0.71093751  0.49087397  1
  Au  Au6  1  0.95143469  0.21093751  0.49087397  1
  Au  Au7  1  0.95143469  0.71093751  0.49087397  1
  Au  Au8  1  0.32533827  0.02343751  0.60281806  1
  Au  Au9  1  0.32533827  0.52343751  0.60281806  1
  Au  Au10  1  0.82533827  0.02343751  0.60281806  1
  Au  Au11  1  0.82533827  0.52343751  0.60281806  1
  Pd  Pd12  1  0.26302100  0.05468749  0.41749404  1
  Pd  Pd13  1  0.26302100  0.55468749  0.41749404  1
  Pd  Pd14  1  0.76302100  0.05468749  0.41749404  1
  Pd  Pd15  1  0.76302100  0.55468749  0.41749404  1
  Pd  Pd16  1  0.13984837  0.36718749  0.56425390  1
  Pd  Pd17  1  0.13984837  0.86718749  0.56425390  1
  Pd  Pd18  1  0.63984837  0.36718749  0.56425390  1
  Pd  Pd19  1  0.63984837  0.86718749  0.56425390  1
  Pd  Pd20  1  0.96233039  0.19100453  0.66722565  1
  Pd  Pd21  1  0.96233039  0.69100453  0.66722565  1
  Pd  Pd22  1  0.46233038  0.19100453  0.66722565  1
  Pd  Pd23  1  0.46233040  0.69100453  0.66722565  1
  Sr  Sr24  1  0.42027605  0.22656250  0.39821196  1
  Sr  Sr25  1  0.42027605  0.72656250  0.39821196  1
  Sr  Sr26  1  0.92027605  0.22656250  0.39821196  1
  Sr  Sr27  1  0.92027605  0.72656250  0.39821196  1
  Sr  Sr28  1  0.23186238  0.07031249  0.32483204  1
  Sr  Sr29  1  0.23186238  0.57031249  0.32483204  1
  Sr  Sr30  1  0.73186238  0.07031249  0.32483204  1
  Sr  Sr31  1  0.73186238  0.57031249  0.32483204  1
  Sr  Sr32  1  0.29417963  0.03906250  0.51015604  1
  Sr  Sr33  1  0.29417963  0.53906250  0.51015604  1
  Sr  Sr34  1  0.79417963  0.03906250  0.51015604  1
  Sr  Sr35  1  0.79417963  0.53906250  0.51015604  1
  Sr  Sr36  1  0.10868975  0.38281249  0.44833605  1
  Sr  Sr37  1  0.10868975  0.88281249  0.44833605  1
  Sr  Sr38  1  0.60868975  0.38281249  0.44833605  1
  Sr  Sr39  1  0.60868975  0.88281249  0.44833605  1
  Sr  Sr40  1  0.13557337  0.35603412  0.65580657  1
  Sr  Sr41  1  0.13557339  0.85603411  0.65580657  1
  Sr  Sr42  1  0.63557338  0.35603411  0.65580657  1
  Sr  Sr43  1  0.63557338  0.85603411  0.65580657  1
  Sr  Sr44  1  0.48259333  0.19531249  0.58353598  1
  Sr  Sr45  1  0.48259333  0.69531249  0.58353598  1
  Sr  Sr46  1  0.98259333  0.19531249  0.58353598  1
  Sr  Sr47  1  0.98259333  0.69531249  0.58353598  1
