# generated using pymatgen
data_YMgCu
_symmetry_space_group_name_H-M   'P 1'
_cell_length_a   13.15027010
_cell_length_b   8.58980866
_cell_length_c   48.21210547
_cell_angle_alpha   62.11325484
_cell_angle_beta   89.99992676
_cell_angle_gamma   40.05226147
_symmetry_Int_Tables_number   1
_chemical_formula_structural   YMgCu
_chemical_formula_sum   'Y12 Mg12 Cu12'
_cell_volume   2406.76977452
_cell_formula_units_Z   12
loop_
 _symmetry_equiv_pos_site_id
 _symmetry_equiv_pos_as_xyz
  1  'x, y, z'
loop_
 _atom_site_type_symbol
 _atom_site_label
 _atom_site_symmetry_multiplicity
 _atom_site_fract_x
 _atom_site_fract_y
 _atom_site_fract_z
 _atom_site_occupancy
  Y  Y0  1  0.97929822  0.62748797  0.62770433  1
  Y  Y1  1  0.39334735  0.62702210  0.62778112  1
  Y  Y2  1  0.57132344  0.85745674  0.60925006  1
  Y  Y3  1  0.99999772  0.58636697  0.55026810  1
  Y  Y4  1  0.41363680  0.58636097  0.55026833  1
  Y  Y5  1  0.58636488  0.82727215  0.53019287  1
  Y  Y6  1  0.99999772  0.58636697  0.46693477  1
  Y  Y7  1  0.41363680  0.58636097  0.46693500  1
  Y  Y8  1  0.58636488  0.82727215  0.44685954  1
  Y  Y9  1  0.99999772  0.58636697  0.38360144  1
  Y  Y10  1  0.41363680  0.58636097  0.38360167  1
  Y  Y11  1  0.58636488  0.82727215  0.36352621  1
  Mg  Mg12  1  0.00426781  0.22779455  0.62232828  1
  Mg  Mg13  1  0.25051101  0.49927933  0.60027675  1
  Mg  Mg14  1  0.76872505  0.22636759  0.62248559  1
  Mg  Mg15  1  0.99999822  0.24335746  0.53718567  1
  Mg  Mg16  1  0.24335578  0.51328920  0.51469110  1
  Mg  Mg17  1  0.75664481  0.24335322  0.53718551  1
  Mg  Mg18  1  0.99999822  0.24335746  0.45385234  1
  Mg  Mg19  1  0.24335578  0.51328920  0.43135776  1
  Mg  Mg20  1  0.75664481  0.24335322  0.45385218  1
  Mg  Mg21  1  0.99999822  0.24335746  0.37051901  1
  Mg  Mg22  1  0.24335578  0.51328920  0.34802443  1
  Mg  Mg23  1  0.75664481  0.24335322  0.37051884  1
  Cu  Cu24  1  0.64790099  0.05011607  0.63355876  1
  Cu  Cu25  1  0.00605383  0.98793806  0.60100371  1
  Cu  Cu26  1  0.30216060  0.04981601  0.63352589  1
  Cu  Cu27  1  0.66666684  0.99999970  0.55746546  1
  Cu  Cu28  1  0.99999930  0.00000015  0.51579887  1
  Cu  Cu29  1  0.33333261  0.00000017  0.55746533  1
  Cu  Cu30  1  0.66666684  0.99999970  0.47413213  1
  Cu  Cu31  1  0.99999930  0.00000015  0.43246553  1
  Cu  Cu32  1  0.33333261  0.00000017  0.47413200  1
  Cu  Cu33  1  0.66666684  0.99999970  0.39079880  1
  Cu  Cu34  1  0.99999930  0.00000015  0.34913220  1
  Cu  Cu35  1  0.33333261  0.00000017  0.39079866  1
