# generated using pymatgen
data_Ca2AgPd
_symmetry_space_group_name_H-M   'P 1'
_cell_length_a   10.43538148
_cell_length_b   14.75786949
_cell_length_c   31.30617311
_cell_angle_alpha   89.99989607
_cell_angle_beta   89.99997310
_cell_angle_gamma   89.99998055
_symmetry_Int_Tables_number   1
_chemical_formula_structural   Ca2AgPd
_chemical_formula_sum   'Ca32 Ag16 Pd16'
_cell_volume   4821.27581977
_cell_formula_units_Z   16
loop_
 _symmetry_equiv_pos_site_id
 _symmetry_equiv_pos_as_xyz
  1  'x, y, z'
loop_
 _atom_site_type_symbol
 _atom_site_label
 _atom_site_symmetry_multiplicity
 _atom_site_fract_x
 _atom_site_fract_y
 _atom_site_fract_z
 _atom_site_occupancy
  Ag  Ag0  1  0.37500002  0.49999999  0.37500000  1
  Ag  Ag1  1  0.37500002  0.99999999  0.37500000  1
  Ag  Ag2  1  0.87500002  0.49999999  0.37500000  1
  Ag  Ag3  1  0.87500002  0.99999999  0.37500000  1
  Ag  Ag4  1  0.12499999  0.25000001  0.45833334  1
  Ag  Ag5  1  0.12499999  0.75000001  0.45833334  1
  Ag  Ag6  1  0.62499999  0.25000001  0.45833334  1
  Ag  Ag7  1  0.62499999  0.75000001  0.45833334  1
  Ag  Ag8  1  0.37500002  0.49999999  0.54166667  1
  Ag  Ag9  1  0.37500002  0.99999999  0.54166667  1
  Ag  Ag10  1  0.87500002  0.49999999  0.54166667  1
  Ag  Ag11  1  0.87500002  0.99999999  0.54166667  1
  Ag  Ag12  1  0.12499995  0.24999989  0.62437973  1
  Ag  Ag13  1  0.12499997  0.74999986  0.62437975  1
  Ag  Ag14  1  0.62499997  0.24999989  0.62437973  1
  Ag  Ag15  1  0.62499994  0.74999985  0.62437975  1
  Ca  Ca16  1  0.37499992  0.12500012  0.45833329  1
  Ca  Ca17  1  0.37499992  0.62500012  0.45833329  1
  Ca  Ca18  1  0.87499992  0.12500012  0.45833329  1
  Ca  Ca19  1  0.87499992  0.62500012  0.45833329  1
  Ca  Ca20  1  0.12500000  0.12500015  0.37500001  1
  Ca  Ca21  1  0.12500000  0.62500015  0.37500001  1
  Ca  Ca22  1  0.62500000  0.12500015  0.37500001  1
  Ca  Ca23  1  0.62500000  0.62500015  0.37500001  1
  Ca  Ca24  1  0.12499997  0.37499986  0.37499999  1
  Ca  Ca25  1  0.12499997  0.87499986  0.37499999  1
  Ca  Ca26  1  0.62499997  0.37499986  0.37499999  1
  Ca  Ca27  1  0.62499997  0.87499986  0.37499999  1
  Ca  Ca28  1  0.37500004  0.37499985  0.45833337  1
  Ca  Ca29  1  0.37500004  0.87499985  0.45833337  1
  Ca  Ca30  1  0.87500004  0.37499985  0.45833337  1
  Ca  Ca31  1  0.87500004  0.87499985  0.45833337  1
  Ca  Ca32  1  0.37499997  0.12245382  0.62518998  1
  Ca  Ca33  1  0.37499997  0.62245380  0.62518998  1
  Ca  Ca34  1  0.87499999  0.12245380  0.62518999  1
  Ca  Ca35  1  0.87499998  0.62245380  0.62518997  1
  Ca  Ca36  1  0.12500000  0.12500015  0.54166668  1
  Ca  Ca37  1  0.12500000  0.62500015  0.54166668  1
  Ca  Ca38  1  0.62500000  0.12500015  0.54166668  1
  Ca  Ca39  1  0.62500000  0.62500015  0.54166668  1
  Ca  Ca40  1  0.12499997  0.37499986  0.54166665  1
  Ca  Ca41  1  0.12499997  0.87499986  0.54166665  1
  Ca  Ca42  1  0.62499997  0.37499986  0.54166665  1
  Ca  Ca43  1  0.62499997  0.87499986  0.54166665  1
  Ca  Ca44  1  0.37499992  0.37754597  0.62519001  1
  Ca  Ca45  1  0.37499992  0.87754599  0.62519004  1
  Ca  Ca46  1  0.87499990  0.37754598  0.62519002  1
  Ca  Ca47  1  0.87499990  0.87754598  0.62519002  1
  Pd  Pd48  1  0.12500004  0.00000002  0.45833334  1
  Pd  Pd49  1  0.12500004  0.50000002  0.45833334  1
  Pd  Pd50  1  0.62500004  0.00000002  0.45833334  1
  Pd  Pd51  1  0.62500004  0.50000002  0.45833334  1
  Pd  Pd52  1  0.37500002  0.25000000  0.37500000  1
  Pd  Pd53  1  0.37500002  0.75000000  0.37500000  1
  Pd  Pd54  1  0.87500002  0.25000000  0.37500000  1
  Pd  Pd55  1  0.87500002  0.75000000  0.37500000  1
  Pd  Pd56  1  0.12499997  0.99999985  0.61538483  1
  Pd  Pd57  1  0.12499997  0.49999983  0.61538483  1
  Pd  Pd58  1  0.62499998  0.99999986  0.61538483  1
  Pd  Pd59  1  0.62499999  0.49999984  0.61538483  1
  Pd  Pd60  1  0.37500002  0.25000000  0.54166666  1
  Pd  Pd61  1  0.37500002  0.75000000  0.54166666  1
  Pd  Pd62  1  0.87500002  0.25000000  0.54166666  1
  Pd  Pd63  1  0.87500002  0.75000000  0.54166666  1
