# generated using pymatgen
data_Sc2AgPt
_symmetry_space_group_name_H-M   'P 1'
_cell_length_a   9.59215339
_cell_length_b   9.59215024
_cell_length_c   35.24381326
_cell_angle_alpha   90.00000251
_cell_angle_beta   89.99999952
_cell_angle_gamma   119.99997882
_symmetry_Int_Tables_number   1
_chemical_formula_structural   Sc2AgPt
_chemical_formula_sum   'Sc24 Ag12 Pt12'
_cell_volume   2808.31424833
_cell_formula_units_Z   12
loop_
 _symmetry_equiv_pos_site_id
 _symmetry_equiv_pos_as_xyz
  1  'x, y, z'
loop_
 _atom_site_type_symbol
 _atom_site_label
 _atom_site_symmetry_multiplicity
 _atom_site_fract_x
 _atom_site_fract_y
 _atom_site_fract_z
 _atom_site_occupancy
  Ag  Ag0  1  0.12500001  0.37500002  0.37500001  1
  Ag  Ag1  1  0.12500001  0.87500002  0.37500001  1
  Ag  Ag2  1  0.62500001  0.37500002  0.37500001  1
  Ag  Ag3  1  0.62500001  0.87500002  0.37500001  1
  Ag  Ag4  1  0.45833334  0.04166669  0.48611112  1
  Ag  Ag5  1  0.45833334  0.54166669  0.48611112  1
  Ag  Ag6  1  0.95833334  0.04166669  0.48611112  1
  Ag  Ag7  1  0.95833334  0.54166669  0.48611112  1
  Ag  Ag8  1  0.29166036  0.20833993  0.60125469  1
  Ag  Ag9  1  0.29166047  0.70833982  0.60125486  1
  Ag  Ag10  1  0.79165995  0.20833928  0.60125480  1
  Ag  Ag11  1  0.79166025  0.70833990  0.60125491  1
  Pt  Pt12  1  0.29166664  0.20833333  0.43055556  1
  Pt  Pt13  1  0.29166664  0.70833333  0.43055556  1
  Pt  Pt14  1  0.79166664  0.20833333  0.43055556  1
  Pt  Pt15  1  0.79166664  0.70833333  0.43055556  1
  Pt  Pt16  1  0.12499998  0.37500000  0.54166667  1
  Pt  Pt17  1  0.12499998  0.87500000  0.54166667  1
  Pt  Pt18  1  0.62499998  0.37500000  0.54166667  1
  Pt  Pt19  1  0.62499998  0.87500000  0.54166667  1
  Pt  Pt20  1  0.45832864  0.04167121  0.64055685  1
  Pt  Pt21  1  0.45832845  0.54167131  0.64055683  1
  Pt  Pt22  1  0.95832828  0.04167113  0.64055686  1
  Pt  Pt23  1  0.95832870  0.54167165  0.64055680  1
  Sc  Sc24  1  0.45833331  0.04166661  0.40277777  1
  Sc  Sc25  1  0.45833331  0.54166661  0.40277777  1
  Sc  Sc26  1  0.95833331  0.04166661  0.40277777  1
  Sc  Sc27  1  0.95833331  0.54166661  0.40277777  1
  Sc  Sc28  1  0.29166671  0.20833337  0.34722222  1
  Sc  Sc29  1  0.29166671  0.70833337  0.34722222  1
  Sc  Sc30  1  0.79166671  0.20833337  0.34722222  1
  Sc  Sc31  1  0.79166671  0.70833337  0.34722222  1
  Sc  Sc32  1  0.29166664  0.20833327  0.51388888  1
  Sc  Sc33  1  0.29166664  0.70833327  0.51388888  1
  Sc  Sc34  1  0.79166664  0.20833327  0.51388888  1
  Sc  Sc35  1  0.79166664  0.70833327  0.51388888  1
  Sc  Sc36  1  0.12500004  0.37500004  0.45833333  1
  Sc  Sc37  1  0.12500004  0.87500004  0.45833333  1
  Sc  Sc38  1  0.62500004  0.37500004  0.45833333  1
  Sc  Sc39  1  0.62500004  0.87500004  0.45833333  1
  Sc  Sc40  1  0.12499558  0.37500422  0.62805168  1
  Sc  Sc41  1  0.12499610  0.87500457  0.62805185  1
  Sc  Sc42  1  0.62499583  0.37500423  0.62805179  1
  Sc  Sc43  1  0.62499565  0.87500419  0.62805217  1
  Sc  Sc44  1  0.45833337  0.04166671  0.56944444  1
  Sc  Sc45  1  0.45833337  0.54166671  0.56944444  1
  Sc  Sc46  1  0.95833337  0.04166671  0.56944444  1
  Sc  Sc47  1  0.95833337  0.54166671  0.56944444  1
