# generated using pymatgen
data_BaIn2Pd
_symmetry_space_group_name_H-M   'P 1'
_cell_length_a   12.94468174
_cell_length_b   8.26872555
_cell_length_c   34.88917956
_cell_angle_alpha   90.00009431
_cell_angle_beta   90.93673864
_cell_angle_gamma   89.99997975
_symmetry_Int_Tables_number   1
_chemical_formula_structural   BaIn2Pd
_chemical_formula_sum   'Ba12 In24 Pd12'
_cell_volume   3733.89986033
_cell_formula_units_Z   12
loop_
 _symmetry_equiv_pos_site_id
 _symmetry_equiv_pos_as_xyz
  1  'x, y, z'
loop_
 _atom_site_type_symbol
 _atom_site_label
 _atom_site_symmetry_multiplicity
 _atom_site_fract_x
 _atom_site_fract_y
 _atom_site_fract_z
 _atom_site_occupancy
  Ba  Ba0  1  0.28350080  0.24999998  0.33714952  1
  Ba  Ba1  1  0.78350080  0.24999998  0.33714952  1
  Ba  Ba2  1  0.37274926  0.74999994  0.32548241  1
  Ba  Ba3  1  0.87274926  0.74999994  0.32548241  1
  Ba  Ba4  1  0.40850080  0.24999998  0.46366593  1
  Ba  Ba5  1  0.90850080  0.24999998  0.46366593  1
  Ba  Ba6  1  0.49774926  0.74999994  0.45199882  1
  Ba  Ba7  1  0.99774926  0.74999994  0.45199882  1
  Ba  Ba8  1  0.03350080  0.24999998  0.58411670  1
  Ba  Ba9  1  0.53350080  0.24999998  0.58411670  1
  Ba  Ba10  1  0.12274926  0.74999994  0.57244959  1
  Ba  Ba11  1  0.62274926  0.74999994  0.57244959  1
  In  In12  1  0.03555712  0.44320160  0.36956217  1
  In  In13  1  0.53555712  0.44320160  0.36956217  1
  In  In14  1  0.24569334  0.55679860  0.41352049  1
  In  In15  1  0.74569334  0.55679860  0.41352049  1
  In  In16  1  0.24569319  0.94320139  0.41352049  1
  In  In17  1  0.74569319  0.94320139  0.41352049  1
  In  In18  1  0.03555727  0.05679844  0.36956218  1
  In  In19  1  0.53555727  0.05679844  0.36956218  1
  In  In20  1  0.16055712  0.44320160  0.49607858  1
  In  In21  1  0.66055712  0.44320160  0.49607858  1
  In  In22  1  0.37069334  0.55679860  0.54003691  1
  In  In23  1  0.87069334  0.55679860  0.54003691  1
  In  In24  1  0.37069319  0.94320139  0.54003690  1
  In  In25  1  0.87069319  0.94320139  0.54003690  1
  In  In26  1  0.16055727  0.05679844  0.49607859  1
  In  In27  1  0.66055727  0.05679844  0.49607859  1
  In  In28  1  0.27571044  0.44952194  0.62555315  1
  In  In29  1  0.77571049  0.44952194  0.62555313  1
  In  In30  1  0.50308119  0.55210511  0.65984713  1
  In  In31  1  0.00308137  0.55210507  0.65984718  1
  In  In32  1  0.50308096  0.94789590  0.65984713  1
  In  In33  1  0.00308124  0.94789581  0.65984714  1
  In  In34  1  0.27571046  0.05047876  0.62555316  1
  In  In35  1  0.77571049  0.05047872  0.62555315  1
  Pd  Pd36  1  0.14882761  0.24999997  0.42618337  1
  Pd  Pd37  1  0.64882761  0.24999997  0.42618337  1
  Pd  Pd38  1  0.13242308  0.75000007  0.35689927  1
  Pd  Pd39  1  0.63242308  0.75000007  0.35689927  1
  Pd  Pd40  1  0.27382761  0.24999997  0.55269978  1
  Pd  Pd41  1  0.77382761  0.24999997  0.55269978  1
  Pd  Pd42  1  0.25742308  0.75000007  0.48341568  1
  Pd  Pd43  1  0.75742308  0.75000007  0.48341568  1
  Pd  Pd44  1  0.41591216  0.25000067  0.66424092  1
  Pd  Pd45  1  0.91591219  0.25000058  0.66424084  1
  Pd  Pd46  1  0.38242308  0.75000007  0.60993210  1
  Pd  Pd47  1  0.88242308  0.75000007  0.60993210  1
