# generated using pymatgen
data_Hf2CuTc
_symmetry_space_group_name_H-M   'P 1'
_cell_length_a   9.27588206
_cell_length_b   9.27588251
_cell_length_c   39.35422803
_cell_angle_alpha   89.99999994
_cell_angle_beta   89.99999697
_cell_angle_gamma   90.00001557
_symmetry_Int_Tables_number   1
_chemical_formula_structural   Hf2CuTc
_chemical_formula_sum   'Hf32 Cu16 Tc16'
_cell_volume   3386.11617982
_cell_formula_units_Z   16
loop_
 _symmetry_equiv_pos_site_id
 _symmetry_equiv_pos_as_xyz
  1  'x, y, z'
loop_
 _atom_site_type_symbol
 _atom_site_label
 _atom_site_symmetry_multiplicity
 _atom_site_fract_x
 _atom_site_fract_y
 _atom_site_fract_z
 _atom_site_occupancy
  Cu  Cu0  1  0.00000001  0.49999999  0.39583333  1
  Cu  Cu1  1  0.00000001  0.99999999  0.39583333  1
  Cu  Cu2  1  0.50000001  0.49999999  0.39583333  1
  Cu  Cu3  1  0.50000001  0.99999999  0.39583333  1
  Cu  Cu4  1  0.24999999  0.25000000  0.47916667  1
  Cu  Cu5  1  0.24999999  0.75000000  0.47916667  1
  Cu  Cu6  1  0.74999999  0.25000000  0.47916667  1
  Cu  Cu7  1  0.74999999  0.75000000  0.47916667  1
  Cu  Cu8  1  0.00000001  0.49999999  0.56250000  1
  Cu  Cu9  1  0.00000001  0.99999999  0.56250000  1
  Cu  Cu10  1  0.50000001  0.49999999  0.56250000  1
  Cu  Cu11  1  0.50000001  0.99999999  0.56250000  1
  Cu  Cu12  1  0.25000482  0.25000424  0.64433044  1
  Cu  Cu13  1  0.25000502  0.74999589  0.64433042  1
  Cu  Cu14  1  0.74999507  0.25000414  0.64433029  1
  Cu  Cu15  1  0.74999506  0.74999585  0.64433061  1
  Hf  Hf16  1  0.00000001  0.25000002  0.35416666  1
  Hf  Hf17  1  0.00000001  0.75000002  0.35416666  1
  Hf  Hf18  1  0.50000001  0.25000002  0.35416666  1
  Hf  Hf19  1  0.50000001  0.75000002  0.35416666  1
  Hf  Hf20  1  0.25000000  0.00000000  0.35416666  1
  Hf  Hf21  1  0.25000000  0.50000000  0.35416666  1
  Hf  Hf22  1  0.75000000  0.00000000  0.35416666  1
  Hf  Hf23  1  0.75000000  0.50000000  0.35416666  1
  Hf  Hf24  1  0.25000000  0.49999999  0.43750000  1
  Hf  Hf25  1  0.25000000  0.99999999  0.43750000  1
  Hf  Hf26  1  0.75000000  0.49999999  0.43750000  1
  Hf  Hf27  1  0.75000000  0.99999999  0.43750000  1
  Hf  Hf28  1  0.49999999  0.24999999  0.43750000  1
  Hf  Hf29  1  0.49999999  0.74999999  0.43750000  1
  Hf  Hf30  1  0.99999999  0.24999999  0.43750000  1
  Hf  Hf31  1  0.99999999  0.74999999  0.43750000  1
  Hf  Hf32  1  0.00000001  0.25000002  0.52083333  1
  Hf  Hf33  1  0.00000001  0.75000002  0.52083333  1
  Hf  Hf34  1  0.50000001  0.25000002  0.52083333  1
  Hf  Hf35  1  0.50000001  0.75000002  0.52083333  1
  Hf  Hf36  1  0.25000000  0.00000000  0.52083333  1
  Hf  Hf37  1  0.25000000  0.50000000  0.52083333  1
  Hf  Hf38  1  0.75000000  0.00000000  0.52083333  1
  Hf  Hf39  1  0.75000000  0.50000000  0.52083333  1
  Hf  Hf40  1  0.25001917  0.49999966  0.60541198  1
  Hf  Hf41  1  0.25002102  0.99999993  0.60541213  1
  Hf  Hf42  1  0.74998079  0.49999846  0.60541177  1
  Hf  Hf43  1  0.74997870  0.00000114  0.60541208  1
  Hf  Hf44  1  0.50000059  0.25000155  0.60541158  1
  Hf  Hf45  1  0.49999919  0.74999885  0.60541174  1
  Hf  Hf46  1  0.99999966  0.25000319  0.60541255  1
  Hf  Hf47  1  0.00000044  0.74999677  0.60541255  1
  Tc  Tc48  1  0.00000001  0.50000000  0.47916667  1
  Tc  Tc49  1  0.00000001  1.00000000  0.47916667  1
  Tc  Tc50  1  0.50000001  0.50000000  0.47916667  1
  Tc  Tc51  1  0.50000001  1.00000000  0.47916667  1
  Tc  Tc52  1  0.25000000  0.25000000  0.39583333  1
  Tc  Tc53  1  0.25000000  0.75000000  0.39583333  1
  Tc  Tc54  1  0.75000000  0.25000000  0.39583333  1
  Tc  Tc55  1  0.75000000  0.75000000  0.39583333  1
  Tc  Tc56  1  0.00000025  0.50000048  0.64091874  1
  Tc  Tc57  1  0.00000004  0.99999993  0.64091794  1
  Tc  Tc58  1  0.49999965  0.50000025  0.64091411  1
  Tc  Tc59  1  0.49999999  0.99999950  0.64091866  1
  Tc  Tc60  1  0.25000000  0.25000000  0.56250000  1
  Tc  Tc61  1  0.25000000  0.75000000  0.56250000  1
  Tc  Tc62  1  0.75000000  0.25000000  0.56250000  1
  Tc  Tc63  1  0.75000000  0.75000000  0.56250000  1
