# generated using pymatgen
data_Ca2CuRh
_symmetry_space_group_name_H-M   'P 1'
_cell_length_a   10.01977541
_cell_length_b   10.01978411
_cell_length_c   32.85205572
_cell_angle_alpha   85.62701490
_cell_angle_beta   85.62695873
_cell_angle_gamma   59.99999610
_symmetry_Int_Tables_number   1
_chemical_formula_structural   Ca2CuRh
_chemical_formula_sum   'Ca24 Cu12 Rh12'
_cell_volume   2845.24481788
_cell_formula_units_Z   12
loop_
 _symmetry_equiv_pos_site_id
 _symmetry_equiv_pos_as_xyz
  1  'x, y, z'
loop_
 _atom_site_type_symbol
 _atom_site_label
 _atom_site_symmetry_multiplicity
 _atom_site_fract_x
 _atom_site_fract_y
 _atom_site_fract_z
 _atom_site_occupancy
  Ca  Ca0  1  0.32031246  0.19531255  0.57812502  1
  Ca  Ca1  1  0.32031246  0.69531255  0.57812502  1
  Ca  Ca2  1  0.82031246  0.19531255  0.57812502  1
  Ca  Ca3  1  0.82031246  0.69531255  0.57812502  1
  Ca  Ca4  1  0.47610785  0.35100922  0.64368492  1
  Ca  Ca5  1  0.47610790  0.85100938  0.64368493  1
  Ca  Ca6  1  0.97610812  0.35100922  0.64368494  1
  Ca  Ca7  1  0.97610800  0.85100919  0.64368490  1
  Ca  Ca8  1  0.00781246  0.38281255  0.45312502  1
  Ca  Ca9  1  0.00781246  0.88281255  0.45312502  1
  Ca  Ca10  1  0.50781246  0.38281255  0.45312502  1
  Ca  Ca11  1  0.50781246  0.88281255  0.45312502  1
  Ca  Ca12  1  0.16406252  0.03906250  0.51562498  1
  Ca  Ca13  1  0.16406252  0.53906250  0.51562498  1
  Ca  Ca14  1  0.66406252  0.03906250  0.51562498  1
  Ca  Ca15  1  0.66406252  0.53906250  0.51562498  1
  Ca  Ca16  1  0.19531246  0.07031255  0.32812502  1
  Ca  Ca17  1  0.19531246  0.57031255  0.32812502  1
  Ca  Ca18  1  0.69531246  0.07031255  0.32812502  1
  Ca  Ca19  1  0.69531246  0.57031255  0.32812502  1
  Ca  Ca20  1  0.35156252  0.22656250  0.39062498  1
  Ca  Ca21  1  0.35156252  0.72656250  0.39062498  1
  Ca  Ca22  1  0.85156252  0.22656250  0.39062498  1
  Ca  Ca23  1  0.85156252  0.72656250  0.39062498  1
  Cu  Cu24  1  0.30645893  0.18122775  0.66182277  1
  Cu  Cu25  1  0.30645895  0.68122785  0.66182250  1
  Cu  Cu26  1  0.80645914  0.18122774  0.66182243  1
  Cu  Cu27  1  0.80645909  0.68122776  0.66182247  1
  Cu  Cu28  1  0.49218750  0.36718748  0.54687500  1
  Cu  Cu29  1  0.49218750  0.86718748  0.54687500  1
  Cu  Cu30  1  0.99218750  0.36718748  0.54687500  1
  Cu  Cu31  1  0.99218750  0.86718748  0.54687500  1
  Cu  Cu32  1  0.17968750  0.05468748  0.42187500  1
  Cu  Cu33  1  0.17968750  0.55468748  0.42187500  1
  Cu  Cu34  1  0.67968750  0.05468748  0.42187500  1
  Cu  Cu35  1  0.67968750  0.55468748  0.42187500  1
  Rh  Rh36  1  0.14843751  0.02343747  0.60937500  1
  Rh  Rh37  1  0.14843751  0.52343747  0.60937500  1
  Rh  Rh38  1  0.64843751  0.02343747  0.60937500  1
  Rh  Rh39  1  0.64843751  0.52343747  0.60937500  1
  Rh  Rh40  1  0.33593751  0.21093747  0.48437500  1
  Rh  Rh41  1  0.33593751  0.71093747  0.48437500  1
  Rh  Rh42  1  0.83593751  0.21093747  0.48437500  1
  Rh  Rh43  1  0.83593751  0.71093747  0.48437500  1
  Rh  Rh44  1  0.02343751  0.39843747  0.35937500  1
  Rh  Rh45  1  0.02343751  0.89843747  0.35937500  1
  Rh  Rh46  1  0.52343751  0.39843747  0.35937500  1
  Rh  Rh47  1  0.52343751  0.89843747  0.35937500  1
