# generated using pymatgen
data_Ag3Pd
_symmetry_space_group_name_H-M   'P 1'
_cell_length_a   11.70776522
_cell_length_b   15.15239878
_cell_length_c   43.28510464
_cell_angle_alpha   50.59401850
_cell_angle_beta   90.00000132
_cell_angle_gamma   67.27344365
_symmetry_Int_Tables_number   1
_chemical_formula_structural   Ag3Pd
_chemical_formula_sum   'Ag72 Pd24'
_cell_volume   5138.27155209
_cell_formula_units_Z   24
loop_
 _symmetry_equiv_pos_site_id
 _symmetry_equiv_pos_as_xyz
  1  'x, y, z'
loop_
 _atom_site_type_symbol
 _atom_site_label
 _atom_site_symmetry_multiplicity
 _atom_site_fract_x
 _atom_site_fract_y
 _atom_site_fract_z
 _atom_site_occupancy
  Ag  Ag0  1  0.16793103  0.41603450  0.37977011  1
  Ag  Ag1  1  0.16793103  0.91603450  0.37977011  1
  Ag  Ag2  1  0.66793103  0.41603450  0.37977011  1
  Ag  Ag3  1  0.66793103  0.91603450  0.37977011  1
  Ag  Ag4  1  0.41603448  0.41603448  0.37977012  1
  Ag  Ag5  1  0.41603448  0.91603448  0.37977012  1
  Ag  Ag6  1  0.91603448  0.41603448  0.37977012  1
  Ag  Ag7  1  0.91603448  0.91603448  0.37977012  1
  Ag  Ag8  1  0.41603450  0.16793103  0.43490421  1
  Ag  Ag9  1  0.41603450  0.66793103  0.43490421  1
  Ag  Ag10  1  0.91603450  0.16793103  0.43490421  1
  Ag  Ag11  1  0.91603450  0.66793103  0.43490421  1
  Ag  Ag12  1  0.33206903  0.08396548  0.39800767  1
  Ag  Ag13  1  0.33206903  0.58396548  0.39800767  1
  Ag  Ag14  1  0.83206903  0.08396548  0.39800767  1
  Ag  Ag15  1  0.83206903  0.58396548  0.39800767  1
  Ag  Ag16  1  0.08396548  0.08396550  0.39800767  1
  Ag  Ag17  1  0.08396548  0.58396550  0.39800767  1
  Ag  Ag18  1  0.58396548  0.08396550  0.39800767  1
  Ag  Ag19  1  0.58396548  0.58396550  0.39800767  1
  Ag  Ag20  1  0.08396547  0.33206903  0.34287355  1
  Ag  Ag21  1  0.08396547  0.83206903  0.34287355  1
  Ag  Ag22  1  0.58396547  0.33206903  0.34287355  1
  Ag  Ag23  1  0.58396547  0.83206903  0.34287355  1
  Ag  Ag24  1  0.16793103  0.41603450  0.49088122  1
  Ag  Ag25  1  0.16793103  0.91603450  0.49088122  1
  Ag  Ag26  1  0.66793103  0.41603450  0.49088122  1
  Ag  Ag27  1  0.66793103  0.91603450  0.49088122  1
  Ag  Ag28  1  0.41603448  0.41603448  0.49088123  1
  Ag  Ag29  1  0.41603448  0.91603448  0.49088123  1
  Ag  Ag30  1  0.91603448  0.41603448  0.49088123  1
  Ag  Ag31  1  0.91603448  0.91603448  0.49088123  1
  Ag  Ag32  1  0.41603450  0.16793103  0.54601532  1
  Ag  Ag33  1  0.41603450  0.66793103  0.54601532  1
  Ag  Ag34  1  0.91603450  0.16793103  0.54601532  1
  Ag  Ag35  1  0.91603450  0.66793103  0.54601532  1
  Ag  Ag36  1  0.33206903  0.08396548  0.50911878  1
  Ag  Ag37  1  0.33206903  0.58396548  0.50911878  1
  Ag  Ag38  1  0.83206903  0.08396548  0.50911878  1
  Ag  Ag39  1  0.83206903  0.58396548  0.50911878  1
  Ag  Ag40  1  0.08396548  0.08396550  0.50911878  1
  Ag  Ag41  1  0.08396548  0.58396550  0.50911878  1
  Ag  Ag42  1  0.58396548  0.08396550  0.50911878  1
  Ag  Ag43  1  0.58396548  0.58396550  0.50911878  1
  Ag  Ag44  1  0.08396547  0.33206903  0.45398466  1
  Ag  Ag45  1  0.08396547  0.83206903  0.45398466  1
  Ag  Ag46  1  0.58396547  0.33206903  0.45398466  1
  Ag  Ag47  1  0.58396547  0.83206903  0.45398466  1
  Ag  Ag48  1  0.16797229  0.41634161  0.60284955  1
  Ag  Ag49  1  0.16797229  0.91634159  0.60284955  1
  Ag  Ag50  1  0.66797229  0.41634159  0.60284956  1
  Ag  Ag51  1  0.66797230  0.91634158  0.60284955  1
  Ag  Ag52  1  0.41558778  0.41635855  0.60285082  1
  Ag  Ag53  1  0.41558779  0.91635854  0.60285082  1
  Ag  Ag54  1  0.91558776  0.41635857  0.60285082  1
  Ag  Ag55  1  0.91558778  0.91635854  0.60285082  1
  Ag  Ag56  1  0.41572556  0.16856155  0.65520021  1
  Ag  Ag57  1  0.41572558  0.66856152  0.65520023  1
  Ag  Ag58  1  0.91572556  0.16856155  0.65520021  1
  Ag  Ag59  1  0.91572557  0.66856153  0.65520022  1
  Ag  Ag60  1  0.33251808  0.08401326  0.61980629  1
  Ag  Ag61  1  0.33251806  0.58401329  0.61980629  1
  Ag  Ag62  1  0.83251807  0.08401326  0.61980629  1
  Ag  Ag63  1  0.83251806  0.58401328  0.61980629  1
  Ag  Ag64  1  0.08350770  0.08402658  0.61979887  1
  Ag  Ag65  1  0.08350770  0.58402661  0.61979887  1
  Ag  Ag66  1  0.58350770  0.08402659  0.61979887  1
  Ag  Ag67  1  0.58350770  0.58402661  0.61979887  1
  Ag  Ag68  1  0.08396547  0.33206903  0.56509577  1
  Ag  Ag69  1  0.08396547  0.83206903  0.56509577  1
  Ag  Ag70  1  0.58396547  0.33206903  0.56509577  1
  Ag  Ag71  1  0.58396547  0.83206903  0.56509577  1
  Pd  Pd72  1  0.33333332  0.33333333  0.34259259  1
  Pd  Pd73  1  0.33333332  0.83333333  0.34259259  1
  Pd  Pd74  1  0.83333332  0.33333333  0.34259259  1
  Pd  Pd75  1  0.83333332  0.83333333  0.34259259  1
  Pd  Pd76  1  0.16666667  0.16666666  0.43518519  1
  Pd  Pd77  1  0.16666667  0.66666666  0.43518519  1
  Pd  Pd78  1  0.66666667  0.16666666  0.43518519  1
  Pd  Pd79  1  0.66666667  0.66666666  0.43518519  1
  Pd  Pd80  1  0.33333332  0.33333333  0.45370370  1
  Pd  Pd81  1  0.33333332  0.83333333  0.45370370  1
  Pd  Pd82  1  0.83333332  0.33333333  0.45370370  1
  Pd  Pd83  1  0.83333332  0.83333333  0.45370370  1
  Pd  Pd84  1  0.16666667  0.16666666  0.54629630  1
  Pd  Pd85  1  0.16666667  0.66666666  0.54629630  1
  Pd  Pd86  1  0.66666667  0.16666666  0.54629630  1
  Pd  Pd87  1  0.66666667  0.66666666  0.54629630  1
  Pd  Pd88  1  0.33333332  0.33333333  0.56481481  1
  Pd  Pd89  1  0.33333332  0.83333333  0.56481481  1
  Pd  Pd90  1  0.83333332  0.33333333  0.56481481  1
  Pd  Pd91  1  0.83333332  0.83333333  0.56481481  1
  Pd  Pd92  1  0.16184633  0.17623189  0.65201120  1
  Pd  Pd93  1  0.16184632  0.67623190  0.65201119  1
  Pd  Pd94  1  0.66184632  0.17623191  0.65201119  1
  Pd  Pd95  1  0.66184633  0.67623190  0.65201119  1
