# generated using pymatgen
data_Ca2PtAu
_symmetry_space_group_name_H-M   'P 1'
_cell_length_a   10.25339978
_cell_length_b   10.25339938
_cell_length_c   36.25123782
_cell_angle_alpha   89.99999614
_cell_angle_beta   89.99999944
_cell_angle_gamma   90.00000084
_symmetry_Int_Tables_number   1
_chemical_formula_structural   Ca2PtAu
_chemical_formula_sum   'Ca32 Pt16 Au16'
_cell_volume   3811.17249158
_cell_formula_units_Z   16
loop_
 _symmetry_equiv_pos_site_id
 _symmetry_equiv_pos_as_xyz
  1  'x, y, z'
loop_
 _atom_site_type_symbol
 _atom_site_label
 _atom_site_symmetry_multiplicity
 _atom_site_fract_x
 _atom_site_fract_y
 _atom_site_fract_z
 _atom_site_occupancy
  Au  Au0  1  0.49999998  0.00000000  0.35848739  1
  Au  Au1  1  0.49999998  0.50000000  0.35848739  1
  Au  Au2  1  0.99999998  0.00000000  0.35848739  1
  Au  Au3  1  0.99999998  0.50000000  0.35848739  1
  Au  Au4  1  0.24999999  0.25000000  0.45848739  1
  Au  Au5  1  0.24999999  0.75000000  0.45848739  1
  Au  Au6  1  0.74999999  0.25000000  0.45848739  1
  Au  Au7  1  0.74999999  0.75000000  0.45848739  1
  Au  Au8  1  0.49999998  0.00000000  0.55848739  1
  Au  Au9  1  0.49999998  0.50000000  0.55848739  1
  Au  Au10  1  0.99999998  0.00000000  0.55848739  1
  Au  Au11  1  0.99999998  0.50000000  0.55848739  1
  Au  Au12  1  0.25000002  0.24999993  0.65571182  1
  Au  Au13  1  0.24999998  0.75000008  0.65571183  1
  Au  Au14  1  0.74999995  0.25000003  0.65571183  1
  Au  Au15  1  0.74999998  0.74999997  0.65571183  1
  Ca  Ca16  1  0.49999999  0.25000000  0.30848734  1
  Ca  Ca17  1  0.49999999  0.75000000  0.30848734  1
  Ca  Ca18  1  0.99999999  0.25000000  0.30848734  1
  Ca  Ca19  1  0.99999999  0.75000000  0.30848734  1
  Ca  Ca20  1  0.25000004  0.49999999  0.30848733  1
  Ca  Ca21  1  0.25000004  0.99999999  0.30848733  1
  Ca  Ca22  1  0.75000004  0.49999999  0.30848733  1
  Ca  Ca23  1  0.75000004  0.99999999  0.30848733  1
  Ca  Ca24  1  0.24999999  0.50000000  0.40848744  1
  Ca  Ca25  1  0.24999999  1.00000000  0.40848744  1
  Ca  Ca26  1  0.74999999  0.50000000  0.40848744  1
  Ca  Ca27  1  0.74999999  1.00000000  0.40848744  1
  Ca  Ca28  1  0.49999997  0.24999999  0.40848744  1
  Ca  Ca29  1  0.49999997  0.74999999  0.40848744  1
  Ca  Ca30  1  0.99999997  0.24999999  0.40848744  1
  Ca  Ca31  1  0.99999997  0.74999999  0.40848744  1
  Ca  Ca32  1  0.49999999  0.25000000  0.50848734  1
  Ca  Ca33  1  0.49999999  0.75000000  0.50848734  1
  Ca  Ca34  1  0.99999999  0.25000000  0.50848734  1
  Ca  Ca35  1  0.99999999  0.75000000  0.50848734  1
  Ca  Ca36  1  0.25000004  0.49999999  0.50848733  1
  Ca  Ca37  1  0.25000004  0.99999999  0.50848733  1
  Ca  Ca38  1  0.75000004  0.49999999  0.50848733  1
  Ca  Ca39  1  0.75000004  0.99999999  0.50848733  1
  Ca  Ca40  1  0.25000033  0.49999996  0.61140614  1
  Ca  Ca41  1  0.24999961  0.99999997  0.61140615  1
  Ca  Ca42  1  0.74999964  0.49999998  0.61140614  1
  Ca  Ca43  1  0.75000038  0.99999996  0.61140616  1
  Ca  Ca44  1  0.49999994  0.25000042  0.61140618  1
  Ca  Ca45  1  0.49999999  0.74999963  0.61140602  1
  Ca  Ca46  1  0.99999998  0.24999969  0.61140603  1
  Ca  Ca47  1  0.99999997  0.75000038  0.61140619  1
  Pt  Pt48  1  0.49999998  0.00000001  0.45848739  1
  Pt  Pt49  1  0.49999998  0.50000001  0.45848739  1
  Pt  Pt50  1  0.99999998  0.00000001  0.45848739  1
  Pt  Pt51  1  0.99999998  0.50000001  0.45848739  1
  Pt  Pt52  1  0.24999999  0.25000000  0.35848739  1
  Pt  Pt53  1  0.24999999  0.75000000  0.35848739  1
  Pt  Pt54  1  0.74999999  0.25000000  0.35848739  1
  Pt  Pt55  1  0.74999999  0.75000000  0.35848739  1
  Pt  Pt56  1  0.49999995  0.00000000  0.64424798  1
  Pt  Pt57  1  0.50000005  0.49999995  0.64424809  1
  Pt  Pt58  1  0.00000003  0.99999994  0.64424811  1
  Pt  Pt59  1  0.99999993  0.50000000  0.64424796  1
  Pt  Pt60  1  0.24999999  0.25000000  0.55848739  1
  Pt  Pt61  1  0.24999999  0.75000000  0.55848739  1
  Pt  Pt62  1  0.74999999  0.25000000  0.55848739  1
  Pt  Pt63  1  0.74999999  0.75000000  0.55848739  1
