# generated using pymatgen
data_YInCu2
_symmetry_space_group_name_H-M   'P 1'
_cell_length_a   9.51301172
_cell_length_b   9.51301772
_cell_length_c   34.95305841
_cell_angle_alpha   89.99979974
_cell_angle_beta   89.99986226
_cell_angle_gamma   60.00009924
_symmetry_Int_Tables_number   1
_chemical_formula_structural   YInCu2
_chemical_formula_sum   'Y12 In12 Cu24'
_cell_volume   2739.38192702
_cell_formula_units_Z   12
loop_
 _symmetry_equiv_pos_site_id
 _symmetry_equiv_pos_as_xyz
  1  'x, y, z'
loop_
 _atom_site_type_symbol
 _atom_site_label
 _atom_site_symmetry_multiplicity
 _atom_site_fract_x
 _atom_site_fract_y
 _atom_site_fract_z
 _atom_site_occupancy
  Cu  Cu0  1  0.41668951  0.29165382  0.65112001  1
  Cu  Cu1  1  0.41668933  0.79165488  0.65112017  1
  Cu  Cu2  1  0.91669154  0.29165338  0.65111969  1
  Cu  Cu3  1  0.91669119  0.79165377  0.65111919  1
  Cu  Cu4  1  0.08335152  0.45832375  0.60826484  1
  Cu  Cu5  1  0.08335167  0.95832289  0.60826465  1
  Cu  Cu6  1  0.58335298  0.45832298  0.60826386  1
  Cu  Cu7  1  0.58335336  0.95832242  0.60826433  1
  Cu  Cu8  1  0.24999910  0.12500001  0.54705941  1
  Cu  Cu9  1  0.24999910  0.62500001  0.54705941  1
  Cu  Cu10  1  0.74999910  0.12500001  0.54705941  1
  Cu  Cu11  1  0.74999910  0.62500001  0.54705941  1
  Cu  Cu12  1  0.41666619  0.29166666  0.49150418  1
  Cu  Cu13  1  0.41666619  0.79166666  0.49150418  1
  Cu  Cu14  1  0.91666619  0.29166666  0.49150418  1
  Cu  Cu15  1  0.91666619  0.79166666  0.49150418  1
  Cu  Cu16  1  0.08333322  0.45833334  0.43594895  1
  Cu  Cu17  1  0.08333322  0.95833334  0.43594895  1
  Cu  Cu18  1  0.58333322  0.45833334  0.43594895  1
  Cu  Cu19  1  0.58333322  0.95833334  0.43594895  1
  Cu  Cu20  1  0.24999913  0.12500000  0.38039274  1
  Cu  Cu21  1  0.24999913  0.62500000  0.38039274  1
  Cu  Cu22  1  0.74999913  0.12500000  0.38039274  1
  Cu  Cu23  1  0.74999913  0.62500000  0.38039274  1
  In  In24  1  0.41666616  0.29166667  0.57483751  1
  In  In25  1  0.41666616  0.79166667  0.57483751  1
  In  In26  1  0.91666616  0.29166667  0.57483751  1
  In  In27  1  0.91666616  0.79166667  0.57483751  1
  In  In28  1  0.24999910  0.12500001  0.46372608  1
  In  In29  1  0.24999910  0.62500001  0.46372608  1
  In  In30  1  0.74999910  0.12500001  0.46372608  1
  In  In31  1  0.74999910  0.62500001  0.46372608  1
  In  In32  1  0.08333322  0.45833334  0.35261562  1
  In  In33  1  0.08333322  0.95833334  0.35261562  1
  In  In34  1  0.58333322  0.45833334  0.35261562  1
  In  In35  1  0.58333322  0.95833334  0.35261562  1
  Y  Y36  1  0.24997605  0.12501067  0.63083851  1
  Y  Y37  1  0.24997694  0.62501461  0.63083858  1
  Y  Y38  1  0.74998022  0.12501093  0.63083860  1
  Y  Y39  1  0.74997674  0.62501179  0.63083838  1
  Y  Y40  1  0.08333325  0.45833332  0.51928229  1
  Y  Y41  1  0.08333325  0.95833332  0.51928229  1
  Y  Y42  1  0.58333325  0.45833332  0.51928229  1
  Y  Y43  1  0.58333325  0.95833332  0.51928229  1
  Y  Y44  1  0.41666618  0.29166666  0.40817085  1
  Y  Y45  1  0.41666618  0.79166666  0.40817085  1
  Y  Y46  1  0.91666618  0.29166666  0.40817085  1
  Y  Y47  1  0.91666618  0.79166666  0.40817085  1
