# generated using pymatgen
data_Hf2CuTc
_symmetry_space_group_name_H-M   'P 1'
_cell_length_a   9.27588206
_cell_length_b   9.27588058
_cell_length_c   34.08176616
_cell_angle_alpha   90.00000463
_cell_angle_beta   90.00001093
_cell_angle_gamma   119.99999379
_symmetry_Int_Tables_number   1
_chemical_formula_structural   Hf2CuTc
_chemical_formula_sum   'Hf24 Cu12 Tc12'
_cell_volume   2539.58713427
_cell_formula_units_Z   12
loop_
 _symmetry_equiv_pos_site_id
 _symmetry_equiv_pos_as_xyz
  1  'x, y, z'
loop_
 _atom_site_type_symbol
 _atom_site_label
 _atom_site_symmetry_multiplicity
 _atom_site_fract_x
 _atom_site_fract_y
 _atom_site_fract_z
 _atom_site_occupancy
  Cu  Cu0  1  0.45833330  0.41666668  0.64472893  1
  Cu  Cu1  1  0.45833323  0.91666675  0.64472892  1
  Cu  Cu2  1  0.95833321  0.41666676  0.64472897  1
  Cu  Cu3  1  0.95833323  0.91666664  0.64472895  1
  Cu  Cu4  1  0.12500000  0.25000000  0.54166667  1
  Cu  Cu5  1  0.12500000  0.75000000  0.54166667  1
  Cu  Cu6  1  0.62500000  0.25000000  0.54166667  1
  Cu  Cu7  1  0.62500000  0.75000000  0.54166667  1
  Cu  Cu8  1  0.29166667  0.08333333  0.43055556  1
  Cu  Cu9  1  0.29166667  0.58333333  0.43055556  1
  Cu  Cu10  1  0.79166667  0.08333333  0.43055556  1
  Cu  Cu11  1  0.79166667  0.58333333  0.43055556  1
  Hf  Hf12  1  0.12500000  0.24999998  0.62478595  1
  Hf  Hf13  1  0.12499997  0.75000001  0.62478582  1
  Hf  Hf14  1  0.62500010  0.25000009  0.62478589  1
  Hf  Hf15  1  0.62500005  0.75000002  0.62478581  1
  Hf  Hf16  1  0.45833334  0.41666667  0.56944445  1
  Hf  Hf17  1  0.45833334  0.91666667  0.56944445  1
  Hf  Hf18  1  0.95833334  0.41666667  0.56944445  1
  Hf  Hf19  1  0.95833334  0.91666667  0.56944445  1
  Hf  Hf20  1  0.29166666  0.08333334  0.51388889  1
  Hf  Hf21  1  0.29166666  0.58333334  0.51388889  1
  Hf  Hf22  1  0.79166666  0.08333334  0.51388889  1
  Hf  Hf23  1  0.79166666  0.58333334  0.51388889  1
  Hf  Hf24  1  0.12500000  0.25000000  0.45833333  1
  Hf  Hf25  1  0.12500000  0.75000000  0.45833333  1
  Hf  Hf26  1  0.62500000  0.25000000  0.45833333  1
  Hf  Hf27  1  0.62500000  0.75000000  0.45833333  1
  Hf  Hf28  1  0.45833333  0.41666667  0.40277778  1
  Hf  Hf29  1  0.45833333  0.91666667  0.40277778  1
  Hf  Hf30  1  0.95833333  0.41666667  0.40277778  1
  Hf  Hf31  1  0.95833333  0.91666667  0.40277778  1
  Hf  Hf32  1  0.29166667  0.08333333  0.34722222  1
  Hf  Hf33  1  0.29166667  0.58333333  0.34722222  1
  Hf  Hf34  1  0.79166667  0.08333333  0.34722222  1
  Hf  Hf35  1  0.79166667  0.58333333  0.34722222  1
  Tc  Tc36  1  0.29166664  0.08333336  0.59778474  1
  Tc  Tc37  1  0.29166654  0.58333336  0.59778468  1
  Tc  Tc38  1  0.79166663  0.08333341  0.59778473  1
  Tc  Tc39  1  0.79166669  0.58333334  0.59778469  1
  Tc  Tc40  1  0.45833333  0.41666667  0.48611111  1
  Tc  Tc41  1  0.45833333  0.91666667  0.48611111  1
  Tc  Tc42  1  0.95833333  0.41666667  0.48611111  1
  Tc  Tc43  1  0.95833333  0.91666667  0.48611111  1
  Tc  Tc44  1  0.12500000  0.25000000  0.37500000  1
  Tc  Tc45  1  0.12500000  0.75000000  0.37500000  1
  Tc  Tc46  1  0.62500000  0.25000000  0.37500000  1
  Tc  Tc47  1  0.62500000  0.75000000  0.37500000  1
