# generated using pymatgen
data_Na3Pd
_symmetry_space_group_name_H-M   'P 1'
_cell_length_a   9.69670536
_cell_length_b   10.94523580
_cell_length_c   33.72496652
_cell_angle_alpha   89.29669407
_cell_angle_beta   90.00001324
_cell_angle_gamma   116.29320180
_symmetry_Int_Tables_number   1
_chemical_formula_structural   Na3Pd
_chemical_formula_sum   'Na36 Pd12'
_cell_volume   3208.70156156
_cell_formula_units_Z   12
loop_
 _symmetry_equiv_pos_site_id
 _symmetry_equiv_pos_as_xyz
  1  'x, y, z'
loop_
 _atom_site_type_symbol
 _atom_site_label
 _atom_site_symmetry_multiplicity
 _atom_site_fract_x
 _atom_site_fract_y
 _atom_site_fract_z
 _atom_site_occupancy
  Na  Na0  1  0.04687488  0.09375005  0.30582722  1
  Na  Na1  1  0.04687488  0.59375005  0.30582722  1
  Na  Na2  1  0.54687488  0.09375005  0.30582722  1
  Na  Na3  1  0.54687488  0.59375005  0.30582722  1
  Na  Na4  1  0.23437495  0.46874994  0.36832726  1
  Na  Na5  1  0.23437495  0.96874994  0.36832726  1
  Na  Na6  1  0.73437495  0.46874994  0.36832726  1
  Na  Na7  1  0.73437495  0.96874994  0.36832726  1
  Na  Na8  1  0.39062494  0.28125000  0.33707721  1
  Na  Na9  1  0.39062494  0.78125000  0.33707721  1
  Na  Na10  1  0.89062494  0.28125000  0.33707721  1
  Na  Na11  1  0.89062494  0.78125000  0.33707721  1
  Na  Na12  1  0.42187497  0.34375005  0.43082719  1
  Na  Na13  1  0.42187497  0.84375005  0.43082719  1
  Na  Na14  1  0.92187497  0.34375005  0.43082719  1
  Na  Na15  1  0.92187497  0.84375005  0.43082719  1
  Na  Na16  1  0.10937487  0.21874994  0.49332726  1
  Na  Na17  1  0.10937487  0.71874994  0.49332726  1
  Na  Na18  1  0.60937487  0.21874994  0.49332726  1
  Na  Na19  1  0.60937487  0.71874994  0.49332726  1
  Na  Na20  1  0.26562485  0.03125000  0.46207721  1
  Na  Na21  1  0.26562485  0.53125000  0.46207721  1
  Na  Na22  1  0.76562485  0.03125000  0.46207721  1
  Na  Na23  1  0.76562485  0.53125000  0.46207721  1
  Na  Na24  1  0.29687488  0.09375005  0.55582719  1
  Na  Na25  1  0.29687488  0.59375005  0.55582719  1
  Na  Na26  1  0.79687488  0.09375005  0.55582719  1
  Na  Na27  1  0.79687488  0.59375005  0.55582719  1
  Na  Na28  1  0.48829832  0.47624097  0.64164425  1
  Na  Na29  1  0.48829802  0.97624055  0.64164388  1
  Na  Na30  1  0.98829883  0.47624118  0.64164403  1
  Na  Na31  1  0.98829856  0.97624052  0.64164405  1
  Na  Na32  1  0.14062494  0.28125000  0.58707724  1
  Na  Na33  1  0.14062494  0.78125000  0.58707724  1
  Na  Na34  1  0.64062494  0.28125000  0.58707724  1
  Na  Na35  1  0.64062494  0.78125000  0.58707724  1
  Pd  Pd36  1  0.07812488  0.15625000  0.39957724  1
  Pd  Pd37  1  0.07812488  0.65625000  0.39957724  1
  Pd  Pd38  1  0.57812488  0.15625000  0.39957724  1
  Pd  Pd39  1  0.57812488  0.65625000  0.39957724  1
  Pd  Pd40  1  0.45312496  0.40625000  0.52457721  1
  Pd  Pd41  1  0.45312496  0.90625000  0.52457721  1
  Pd  Pd42  1  0.95312496  0.40625000  0.52457721  1
  Pd  Pd43  1  0.95312496  0.90625000  0.52457721  1
  Pd  Pd44  1  0.33363173  0.16681588  0.63482948  1
  Pd  Pd45  1  0.33363157  0.66681599  0.63482943  1
  Pd  Pd46  1  0.83363205  0.16681653  0.63483006  1
  Pd  Pd47  1  0.83363205  0.66681596  0.63482940  1
