# generated using pymatgen
data_Ca2CuAg
_symmetry_space_group_name_H-M   'P 1'
_cell_length_a   8.30320513
_cell_length_b   9.17302018
_cell_length_c   33.93869338
_cell_angle_alpha   90.00000681
_cell_angle_beta   89.99999627
_cell_angle_gamma   90.00000225
_symmetry_Int_Tables_number   1
_chemical_formula_structural   Ca2CuAg
_chemical_formula_sum   'Ca16 Cu8 Ag8'
_cell_volume   2584.95647193
_cell_formula_units_Z   8
loop_
 _symmetry_equiv_pos_site_id
 _symmetry_equiv_pos_as_xyz
  1  'x, y, z'
loop_
 _atom_site_type_symbol
 _atom_site_label
 _atom_site_symmetry_multiplicity
 _atom_site_fract_x
 _atom_site_fract_y
 _atom_site_fract_z
 _atom_site_occupancy
  Ca  Ca0  1  0.49999999  0.50000000  0.33886491  1
  Ca  Ca1  1  0.49999999  1.00000000  0.33886491  1
  Ca  Ca2  1  0.99999999  0.50000000  0.33886491  1
  Ca  Ca3  1  0.99999999  1.00000000  0.33886491  1
  Ca  Ca4  1  0.25000000  0.24999999  0.41097461  1
  Ca  Ca5  1  0.25000000  0.74999999  0.41097461  1
  Ca  Ca6  1  0.75000000  0.24999999  0.41097461  1
  Ca  Ca7  1  0.75000000  0.74999999  0.41097461  1
  Ca  Ca8  1  0.24999998  0.00000002  0.50553160  1
  Ca  Ca9  1  0.24999998  0.50000002  0.50553160  1
  Ca  Ca10  1  0.74999998  0.00000002  0.50553160  1
  Ca  Ca11  1  0.74999998  0.50000002  0.50553160  1
  Ca  Ca12  1  0.49999999  0.24999997  0.57764120  1
  Ca  Ca13  1  0.49999999  0.74999997  0.57764120  1
  Ca  Ca14  1  0.99999999  0.24999997  0.57764120  1
  Ca  Ca15  1  0.99999999  0.74999997  0.57764120  1
  Cu  Cu16  1  0.25000000  0.24999995  0.64048445  1
  Cu  Cu17  1  0.25000006  0.74999996  0.64049146  1
  Cu  Cu18  1  0.75000006  0.24999994  0.64049185  1
  Cu  Cu19  1  0.74999987  0.74999993  0.64048932  1
  Cu  Cu20  1  0.00000000  0.25000000  0.48131331  1
  Cu  Cu21  1  0.00000000  0.75000000  0.48131331  1
  Cu  Cu22  1  0.50000000  0.25000000  0.48131331  1
  Cu  Cu23  1  0.50000000  0.75000000  0.48131331  1
  Ag  Ag24  1  0.00000001  0.00000001  0.43551378  1
  Ag  Ag25  1  0.00000001  0.50000001  0.43551378  1
  Ag  Ag26  1  0.50000001  0.00000001  0.43551378  1
  Ag  Ag27  1  0.50000001  0.50000001  0.43551378  1
  Ag  Ag28  1  0.24999995  0.00001450  0.60211933  1
  Ag  Ag29  1  0.25000002  0.49998556  0.60211933  1
  Ag  Ag30  1  0.74999997  0.99999386  0.60212004  1
  Ag  Ag31  1  0.74999981  0.50000622  0.60212006  1
