# generated using pymatgen
data_Ca3Pd
_symmetry_space_group_name_H-M   'P 1'
_cell_length_a   13.51344755
_cell_length_b   12.68735976
_cell_length_c   47.35907167
_cell_angle_alpha   128.47179926
_cell_angle_beta   89.99997995
_cell_angle_gamma   90.00001216
_symmetry_Int_Tables_number   1
_chemical_formula_structural   Ca3Pd
_chemical_formula_sum   'Ca48 Pd16'
_cell_volume   6357.03951347
_cell_formula_units_Z   16
loop_
 _symmetry_equiv_pos_site_id
 _symmetry_equiv_pos_as_xyz
  1  'x, y, z'
loop_
 _atom_site_type_symbol
 _atom_site_label
 _atom_site_symmetry_multiplicity
 _atom_site_fract_x
 _atom_site_fract_y
 _atom_site_fract_z
 _atom_site_occupancy
  Ca  Ca0  1  0.32662364  0.06870926  0.62913413  1
  Ca  Ca1  1  0.82662363  0.06870928  0.62913413  1
  Ca  Ca2  1  0.41636545  0.44252372  0.61038589  1
  Ca  Ca3  1  0.91636543  0.44252372  0.61038590  1
  Ca  Ca4  1  0.16864633  0.56592373  0.48969919  1
  Ca  Ca5  1  0.66864633  0.56592373  0.48969919  1
  Ca  Ca6  1  0.07750698  0.92519850  0.63376854  1
  Ca  Ca7  1  0.57750697  0.92519851  0.63376855  1
  Ca  Ca8  1  0.16864633  0.93407628  0.55105794  1
  Ca  Ca9  1  0.66864633  0.93407628  0.55105794  1
  Ca  Ca10  1  0.08135367  0.56592373  0.57303253  1
  Ca  Ca11  1  0.58135367  0.56592373  0.57303253  1
  Ca  Ca12  1  0.33135367  0.43407626  0.52503620  1
  Ca  Ca13  1  0.83135367  0.43407626  0.52503620  1
  Ca  Ca14  1  0.41864634  0.06592371  0.54701075  1
  Ca  Ca15  1  0.91864634  0.06592371  0.54701075  1
  Ca  Ca16  1  0.08166487  0.26059669  0.63660998  1
  Ca  Ca17  1  0.58166487  0.26059673  0.63660999  1
  Ca  Ca18  1  0.17944452  0.25000003  0.55571061  1
  Ca  Ca19  1  0.67944452  0.25000003  0.55571061  1
  Ca  Ca20  1  0.42944449  0.74999999  0.54235811  1
  Ca  Ca21  1  0.92944449  0.74999999  0.54235811  1
  Ca  Ca22  1  0.32407649  0.75705428  0.62698885  1
  Ca  Ca23  1  0.82407650  0.75705429  0.62698885  1
  Ca  Ca24  1  0.33135366  0.06592374  0.46367745  1
  Ca  Ca25  1  0.83135366  0.06592374  0.46367745  1
  Ca  Ca26  1  0.41864633  0.43407626  0.44170285  1
  Ca  Ca27  1  0.91864633  0.43407626  0.44170285  1
  Ca  Ca28  1  0.16864633  0.56592373  0.32303252  1
  Ca  Ca29  1  0.66864633  0.56592373  0.32303252  1
  Ca  Ca30  1  0.08135366  0.93407628  0.46772462  1
  Ca  Ca31  1  0.58135366  0.93407628  0.46772462  1
  Ca  Ca32  1  0.16864633  0.93407628  0.38439127  1
  Ca  Ca33  1  0.66864633  0.93407628  0.38439127  1
  Ca  Ca34  1  0.08135367  0.56592373  0.40636586  1
  Ca  Ca35  1  0.58135367  0.56592373  0.40636586  1
  Ca  Ca36  1  0.33135367  0.43407626  0.35836953  1
  Ca  Ca37  1  0.83135367  0.43407626  0.35836953  1
  Ca  Ca38  1  0.41864634  0.06592371  0.38034409  1
  Ca  Ca39  1  0.91864634  0.06592371  0.38034409  1
  Ca  Ca40  1  0.07055551  0.25000002  0.47237725  1
  Ca  Ca41  1  0.57055551  0.25000002  0.47237725  1
  Ca  Ca42  1  0.17944452  0.25000003  0.38904394  1
  Ca  Ca43  1  0.67944452  0.25000003  0.38904394  1
  Ca  Ca44  1  0.42944449  0.74999999  0.37569144  1
  Ca  Ca45  1  0.92944449  0.74999999  0.37569144  1
  Ca  Ca46  1  0.32055549  0.74999997  0.45902479  1
  Ca  Ca47  1  0.82055549  0.74999997  0.45902479  1
  Pd  Pd48  1  0.47505776  0.24999998  0.52876175  1
  Pd  Pd49  1  0.97505776  0.24999998  0.52876175  1
  Pd  Pd50  1  0.27777881  0.22119988  0.60559601  1
  Pd  Pd51  1  0.77777881  0.22119988  0.60559601  1
  Pd  Pd52  1  0.01842471  0.72053871  0.64402427  1
  Pd  Pd53  1  0.51842470  0.72053870  0.64402427  1
  Pd  Pd54  1  0.22505771  0.74999998  0.56930692  1
  Pd  Pd55  1  0.72505771  0.74999998  0.56930692  1
  Pd  Pd56  1  0.47505776  0.24999998  0.36209508  1
  Pd  Pd57  1  0.97505776  0.24999998  0.36209508  1
  Pd  Pd58  1  0.27494231  0.25000001  0.44542847  1
  Pd  Pd59  1  0.77494231  0.25000001  0.44542847  1
  Pd  Pd60  1  0.02494229  0.75000004  0.48597363  1
  Pd  Pd61  1  0.52494229  0.75000004  0.48597363  1
  Pd  Pd62  1  0.22505771  0.74999998  0.40264025  1
  Pd  Pd63  1  0.72505771  0.74999998  0.40264025  1
