# generated using pymatgen
data_Y2IrAu
_symmetry_space_group_name_H-M   'P 1'
_cell_length_a   10.01769151
_cell_length_b   14.16715713
_cell_length_c   30.05307609
_cell_angle_alpha   89.99999539
_cell_angle_beta   89.99999703
_cell_angle_gamma   89.99999854
_symmetry_Int_Tables_number   1
_chemical_formula_structural   Y2IrAu
_chemical_formula_sum   'Y32 Ir16 Au16'
_cell_volume   4265.19896704
_cell_formula_units_Z   16
loop_
 _symmetry_equiv_pos_site_id
 _symmetry_equiv_pos_as_xyz
  1  'x, y, z'
loop_
 _atom_site_type_symbol
 _atom_site_label
 _atom_site_symmetry_multiplicity
 _atom_site_fract_x
 _atom_site_fract_y
 _atom_site_fract_z
 _atom_site_occupancy
  Au  Au0  1  0.37500000  0.00000000  0.37500000  1
  Au  Au1  1  0.37500000  0.50000000  0.37500000  1
  Au  Au2  1  0.87500000  0.00000000  0.37500000  1
  Au  Au3  1  0.87500000  0.50000000  0.37500000  1
  Au  Au4  1  0.12500000  0.25000000  0.45833333  1
  Au  Au5  1  0.12500000  0.75000000  0.45833333  1
  Au  Au6  1  0.62500000  0.25000000  0.45833333  1
  Au  Au7  1  0.62500000  0.75000000  0.45833333  1
  Au  Au8  1  0.37500000  0.00000000  0.54166666  1
  Au  Au9  1  0.37500000  0.50000000  0.54166666  1
  Au  Au10  1  0.87500000  0.00000000  0.54166666  1
  Au  Au11  1  0.87500000  0.50000000  0.54166666  1
  Au  Au12  1  0.12500000  0.24999997  0.62418296  1
  Au  Au13  1  0.12500000  0.75000000  0.62418297  1
  Au  Au14  1  0.62499999  0.24999997  0.62418295  1
  Au  Au15  1  0.62499999  0.75000001  0.62418297  1
  Ir  Ir16  1  0.12500000  0.50000000  0.45833333  1
  Ir  Ir17  1  0.12500000  1.00000000  0.45833333  1
  Ir  Ir18  1  0.62500000  0.50000000  0.45833333  1
  Ir  Ir19  1  0.62500000  1.00000000  0.45833333  1
  Ir  Ir20  1  0.37499999  0.25000000  0.37500000  1
  Ir  Ir21  1  0.37499999  0.75000000  0.37500000  1
  Ir  Ir22  1  0.87499999  0.25000000  0.37500000  1
  Ir  Ir23  1  0.87499999  0.75000000  0.37500000  1
  Ir  Ir24  1  0.12499999  0.50000000  0.61422358  1
  Ir  Ir25  1  0.12499998  0.99999999  0.61422357  1
  Ir  Ir26  1  0.62500000  0.50000000  0.61422358  1
  Ir  Ir27  1  0.62500000  0.99999999  0.61422359  1
  Ir  Ir28  1  0.37499999  0.25000000  0.54166667  1
  Ir  Ir29  1  0.37499999  0.75000000  0.54166667  1
  Ir  Ir30  1  0.87499999  0.25000000  0.54166667  1
  Ir  Ir31  1  0.87499999  0.75000000  0.54166667  1
  Y  Y32  1  0.37500000  0.12499999  0.45833333  1
  Y  Y33  1  0.37500000  0.62499999  0.45833333  1
  Y  Y34  1  0.87500000  0.12499999  0.45833333  1
  Y  Y35  1  0.87500000  0.62499999  0.45833333  1
  Y  Y36  1  0.12500000  0.12499999  0.37500000  1
  Y  Y37  1  0.12500000  0.62499999  0.37500000  1
  Y  Y38  1  0.62500000  0.12499999  0.37500000  1
  Y  Y39  1  0.62500000  0.62499999  0.37500000  1
  Y  Y40  1  0.12500001  0.37500001  0.37500000  1
  Y  Y41  1  0.12500001  0.87500001  0.37500000  1
  Y  Y42  1  0.62500001  0.37500001  0.37500000  1
  Y  Y43  1  0.62500001  0.87500001  0.37500000  1
  Y  Y44  1  0.37500001  0.37500001  0.45833333  1
  Y  Y45  1  0.37500001  0.87500001  0.45833333  1
  Y  Y46  1  0.87500001  0.37500001  0.45833333  1
  Y  Y47  1  0.87500001  0.87500001  0.45833333  1
  Y  Y48  1  0.37499998  0.12168150  0.62429007  1
  Y  Y49  1  0.37499999  0.62168153  0.62429006  1
  Y  Y50  1  0.87500001  0.12168151  0.62429007  1
  Y  Y51  1  0.87500000  0.62168153  0.62429006  1
  Y  Y52  1  0.12500000  0.12499999  0.54166667  1
  Y  Y53  1  0.12500000  0.62499999  0.54166667  1
  Y  Y54  1  0.62500000  0.12499999  0.54166667  1
  Y  Y55  1  0.62500000  0.62499999  0.54166667  1
  Y  Y56  1  0.12500001  0.37500001  0.54166667  1
  Y  Y57  1  0.12500001  0.87500001  0.54166667  1
  Y  Y58  1  0.62500001  0.37500001  0.54166667  1
  Y  Y59  1  0.62500001  0.87500001  0.54166667  1
  Y  Y60  1  0.37499999  0.37831847  0.62429006  1
  Y  Y61  1  0.37499998  0.87831847  0.62429008  1
  Y  Y62  1  0.87500000  0.37831846  0.62429006  1
  Y  Y63  1  0.87500001  0.87831847  0.62429008  1
