# generated using pymatgen
data_Ca3Pd
_symmetry_space_group_name_H-M   'P 1'
_cell_length_a   13.51344755
_cell_length_b   9.93311743
_cell_length_c   39.46589306
_cell_angle_alpha   90.00000260
_cell_angle_beta   89.99997995
_cell_angle_gamma   89.99999960
_symmetry_Int_Tables_number   1
_chemical_formula_structural   Ca3Pd
_chemical_formula_sum   'Ca48 Pd16'
_cell_volume   5297.53292812
_cell_formula_units_Z   16
loop_
 _symmetry_equiv_pos_site_id
 _symmetry_equiv_pos_as_xyz
  1  'x, y, z'
loop_
 _atom_site_type_symbol
 _atom_site_label
 _atom_site_symmetry_multiplicity
 _atom_site_fract_x
 _atom_site_fract_y
 _atom_site_fract_z
 _atom_site_occupancy
  Ca  Ca0  1  0.33135365  0.93407626  0.34061302  1
  Ca  Ca1  1  0.83135365  0.93407626  0.34061302  1
  Ca  Ca2  1  0.41864633  0.56592374  0.44061302  1
  Ca  Ca3  1  0.91864633  0.56592374  0.44061302  1
  Ca  Ca4  1  0.16864632  0.43407627  0.40938697  1
  Ca  Ca5  1  0.66864632  0.43407627  0.40938697  1
  Ca  Ca6  1  0.08135366  0.06592372  0.30938698  1
  Ca  Ca7  1  0.58135366  0.06592372  0.30938698  1
  Ca  Ca8  1  0.16864633  0.06592372  0.40938698  1
  Ca  Ca9  1  0.66864633  0.06592372  0.40938698  1
  Ca  Ca10  1  0.08135367  0.43407627  0.30938698  1
  Ca  Ca11  1  0.58135367  0.43407627  0.30938698  1
  Ca  Ca12  1  0.33135366  0.56592374  0.34061302  1
  Ca  Ca13  1  0.83135366  0.56592374  0.34061302  1
  Ca  Ca14  1  0.41864633  0.93407629  0.44061303  1
  Ca  Ca15  1  0.91864633  0.93407629  0.44061303  1
  Ca  Ca16  1  0.07055551  0.74999998  0.36698857  1
  Ca  Ca17  1  0.57055551  0.74999998  0.36698857  1
  Ca  Ca18  1  0.17944451  0.74999997  0.46698853  1
  Ca  Ca19  1  0.67944451  0.74999997  0.46698853  1
  Ca  Ca20  1  0.42944449  0.25000001  0.38301145  1
  Ca  Ca21  1  0.92944449  0.25000001  0.38301145  1
  Ca  Ca22  1  0.32055549  0.25000003  0.48301145  1
  Ca  Ca23  1  0.82055549  0.25000003  0.48301145  1
  Ca  Ca24  1  0.33135365  0.93407626  0.54061302  1
  Ca  Ca25  1  0.83135365  0.93407626  0.54061302  1
  Ca  Ca26  1  0.41864633  0.56592374  0.64061302  1
  Ca  Ca27  1  0.91864633  0.56592374  0.64061302  1
  Ca  Ca28  1  0.16864632  0.43407627  0.60938697  1
  Ca  Ca29  1  0.66864632  0.43407627  0.60938697  1
  Ca  Ca30  1  0.08135366  0.06592372  0.50938698  1
  Ca  Ca31  1  0.58135366  0.06592372  0.50938698  1
  Ca  Ca32  1  0.16864633  0.06592372  0.60938698  1
  Ca  Ca33  1  0.66864633  0.06592372  0.60938698  1
  Ca  Ca34  1  0.08135367  0.43407627  0.50938698  1
  Ca  Ca35  1  0.58135367  0.43407627  0.50938698  1
  Ca  Ca36  1  0.33135366  0.56592374  0.54061302  1
  Ca  Ca37  1  0.83135366  0.56592374  0.54061302  1
  Ca  Ca38  1  0.41864633  0.93407629  0.64061303  1
  Ca  Ca39  1  0.91864633  0.93407629  0.64061303  1
  Ca  Ca40  1  0.07055551  0.74999998  0.56698857  1
  Ca  Ca41  1  0.57055551  0.74999998  0.56698857  1
  Ca  Ca42  1  0.17504322  0.75000001  0.67019529  1
  Ca  Ca43  1  0.67504320  0.75000000  0.67019530  1
  Ca  Ca44  1  0.42944449  0.25000001  0.58301145  1
  Ca  Ca45  1  0.92944449  0.25000001  0.58301145  1
  Ca  Ca46  1  0.31565189  0.25000002  0.67865999  1
  Ca  Ca47  1  0.81565189  0.25000003  0.67865999  1
  Pd  Pd48  1  0.47505775  0.75000002  0.49932707  1
  Pd  Pd49  1  0.97505775  0.75000002  0.49932707  1
  Pd  Pd50  1  0.27494231  0.74999999  0.39932706  1
  Pd  Pd51  1  0.77494231  0.74999999  0.39932706  1
  Pd  Pd52  1  0.02494229  0.24999996  0.45067293  1
  Pd  Pd53  1  0.52494229  0.24999996  0.45067293  1
  Pd  Pd54  1  0.22505770  0.25000002  0.35067293  1
  Pd  Pd55  1  0.72505770  0.25000002  0.35067293  1
  Pd  Pd56  1  0.46703864  0.75000002  0.69127212  1
  Pd  Pd57  1  0.96703856  0.75000002  0.69127214  1
  Pd  Pd58  1  0.27494231  0.74999999  0.59932706  1
  Pd  Pd59  1  0.77494231  0.74999999  0.59932706  1
  Pd  Pd60  1  0.01991239  0.25000000  0.64808018  1
  Pd  Pd61  1  0.51991240  0.25000000  0.64808018  1
  Pd  Pd62  1  0.22505770  0.25000002  0.55067293  1
  Pd  Pd63  1  0.72505770  0.25000002  0.55067293  1
