# generated using pymatgen
data_Y2ZnPt
_symmetry_space_group_name_H-M   'P 1'
_cell_length_a   10.07684283
_cell_length_b   14.25080699
_cell_length_c   30.23052511
_cell_angle_alpha   89.99999425
_cell_angle_beta   90.00000512
_cell_angle_gamma   89.99999855
_symmetry_Int_Tables_number   1
_chemical_formula_structural   Y2ZnPt
_chemical_formula_sum   'Y32 Zn16 Pt16'
_cell_volume   4341.19839733
_cell_formula_units_Z   16
loop_
 _symmetry_equiv_pos_site_id
 _symmetry_equiv_pos_as_xyz
  1  'x, y, z'
loop_
 _atom_site_type_symbol
 _atom_site_label
 _atom_site_symmetry_multiplicity
 _atom_site_fract_x
 _atom_site_fract_y
 _atom_site_fract_z
 _atom_site_occupancy
  Pt  Pt0  1  0.12500000  0.00000000  0.37500000  1
  Pt  Pt1  1  0.12500000  0.50000000  0.37500000  1
  Pt  Pt2  1  0.62500000  0.00000000  0.37500000  1
  Pt  Pt3  1  0.62500000  0.50000000  0.37500000  1
  Pt  Pt4  1  0.37500000  0.25000000  0.45833333  1
  Pt  Pt5  1  0.37500000  0.75000000  0.45833333  1
  Pt  Pt6  1  0.87500000  0.25000000  0.45833333  1
  Pt  Pt7  1  0.87500000  0.75000000  0.45833333  1
  Pt  Pt8  1  0.12500000  0.00000000  0.54166667  1
  Pt  Pt9  1  0.12500000  0.50000000  0.54166667  1
  Pt  Pt10  1  0.62500000  0.00000000  0.54166667  1
  Pt  Pt11  1  0.62500000  0.50000000  0.54166667  1
  Pt  Pt12  1  0.37500001  0.24999960  0.61266057  1
  Pt  Pt13  1  0.37500000  0.75000029  0.61266059  1
  Pt  Pt14  1  0.87500001  0.24999960  0.61266057  1
  Pt  Pt15  1  0.87500000  0.75000029  0.61266059  1
  Y  Y16  1  0.12500001  0.12500003  0.45833333  1
  Y  Y17  1  0.12500001  0.62500003  0.45833333  1
  Y  Y18  1  0.62500001  0.12500003  0.45833333  1
  Y  Y19  1  0.62500001  0.62500003  0.45833333  1
  Y  Y20  1  0.37499999  0.12500004  0.37500000  1
  Y  Y21  1  0.37499999  0.62500004  0.37500000  1
  Y  Y22  1  0.87499999  0.12500004  0.37500000  1
  Y  Y23  1  0.87499999  0.62500004  0.37500000  1
  Y  Y24  1  0.37500000  0.37499996  0.37500000  1
  Y  Y25  1  0.37500000  0.87499996  0.37500000  1
  Y  Y26  1  0.87500000  0.37499996  0.37500000  1
  Y  Y27  1  0.87500000  0.87499996  0.37500000  1
  Y  Y28  1  0.12499999  0.37499996  0.45833333  1
  Y  Y29  1  0.12499999  0.87499996  0.45833333  1
  Y  Y30  1  0.62499999  0.37499996  0.45833333  1
  Y  Y31  1  0.62499999  0.87499996  0.45833333  1
  Y  Y32  1  0.12500002  0.12579813  0.62393810  1
  Y  Y33  1  0.12500002  0.62579976  0.62393866  1
  Y  Y34  1  0.62500001  0.12579813  0.62393810  1
  Y  Y35  1  0.62500001  0.62579976  0.62393866  1
  Y  Y36  1  0.37499999  0.12500004  0.54166667  1
  Y  Y37  1  0.37499999  0.62500004  0.54166667  1
  Y  Y38  1  0.87499999  0.12500004  0.54166667  1
  Y  Y39  1  0.87499999  0.62500004  0.54166667  1
  Y  Y40  1  0.37500000  0.37499996  0.54166667  1
  Y  Y41  1  0.37500000  0.87499996  0.54166667  1
  Y  Y42  1  0.87500000  0.37499996  0.54166667  1
  Y  Y43  1  0.87500000  0.87499996  0.54166667  1
  Y  Y44  1  0.12500002  0.37419974  0.62393844  1
  Y  Y45  1  0.12500001  0.87420168  0.62393795  1
  Y  Y46  1  0.62500003  0.37419974  0.62393844  1
  Y  Y47  1  0.62500002  0.87420168  0.62393795  1
  Zn  Zn48  1  0.37500000  0.50000000  0.45833333  1
  Zn  Zn49  1  0.37500000  1.00000000  0.45833333  1
  Zn  Zn50  1  0.87500000  0.50000000  0.45833333  1
  Zn  Zn51  1  0.87500000  1.00000000  0.45833333  1
  Zn  Zn52  1  0.12500000  0.25000000  0.37500000  1
  Zn  Zn53  1  0.12500000  0.75000000  0.37500000  1
  Zn  Zn54  1  0.62500000  0.25000000  0.37500000  1
  Zn  Zn55  1  0.62500000  0.75000000  0.37500000  1
  Zn  Zn56  1  0.37500003  0.49999857  0.63280210  1
  Zn  Zn57  1  0.37500001  0.00000099  0.63280403  1
  Zn  Zn58  1  0.87500002  0.49999857  0.63280209  1
  Zn  Zn59  1  0.87500002  0.00000099  0.63280402  1
  Zn  Zn60  1  0.12500000  0.25000000  0.54166667  1
  Zn  Zn61  1  0.12500000  0.75000000  0.54166667  1
  Zn  Zn62  1  0.62500000  0.25000000  0.54166667  1
  Zn  Zn63  1  0.62500000  0.75000000  0.54166667  1
