# generated using pymatgen
data_Al2CuPd
_symmetry_space_group_name_H-M   'P 1'
_cell_length_a   8.64899975
_cell_length_b   8.64900133
_cell_length_c   36.69460050
_cell_angle_alpha   89.99999762
_cell_angle_beta   89.99999742
_cell_angle_gamma   89.99999410
_symmetry_Int_Tables_number   1
_chemical_formula_structural   Al2CuPd
_chemical_formula_sum   'Al32 Cu16 Pd16'
_cell_volume   2744.94730878
_cell_formula_units_Z   16
loop_
 _symmetry_equiv_pos_site_id
 _symmetry_equiv_pos_as_xyz
  1  'x, y, z'
loop_
 _atom_site_type_symbol
 _atom_site_label
 _atom_site_symmetry_multiplicity
 _atom_site_fract_x
 _atom_site_fract_y
 _atom_site_fract_z
 _atom_site_occupancy
  Al  Al0  1  0.25000000  0.50000000  0.35416668  1
  Al  Al1  1  0.25000000  1.00000000  0.35416668  1
  Al  Al2  1  0.75000000  0.50000000  0.35416668  1
  Al  Al3  1  0.75000000  1.00000000  0.35416668  1
  Al  Al4  1  0.00000000  0.25000000  0.35416668  1
  Al  Al5  1  0.00000000  0.75000000  0.35416668  1
  Al  Al6  1  0.50000000  0.25000000  0.35416668  1
  Al  Al7  1  0.50000000  0.75000000  0.35416668  1
  Al  Al8  1  0.00000000  0.25000000  0.43749999  1
  Al  Al9  1  0.00000000  0.75000000  0.43749999  1
  Al  Al10  1  0.50000000  0.25000000  0.43749999  1
  Al  Al11  1  0.50000000  0.75000000  0.43749999  1
  Al  Al12  1  0.25000000  0.00000000  0.43749999  1
  Al  Al13  1  0.25000000  0.50000000  0.43749999  1
  Al  Al14  1  0.75000000  0.00000000  0.43749999  1
  Al  Al15  1  0.75000000  0.50000000  0.43749999  1
  Al  Al16  1  0.25000000  0.50000000  0.52083334  1
  Al  Al17  1  0.25000000  1.00000000  0.52083334  1
  Al  Al18  1  0.75000000  0.50000000  0.52083334  1
  Al  Al19  1  0.75000000  1.00000000  0.52083334  1
  Al  Al20  1  0.00000000  0.25000000  0.52083334  1
  Al  Al21  1  0.00000000  0.75000000  0.52083334  1
  Al  Al22  1  0.50000000  0.25000000  0.52083334  1
  Al  Al23  1  0.50000000  0.75000000  0.52083334  1
  Al  Al24  1  0.00000001  0.25000000  0.60707248  1
  Al  Al25  1  0.00000001  0.75000000  0.60707247  1
  Al  Al26  1  0.49999999  0.24999999  0.60707247  1
  Al  Al27  1  0.49999998  0.75000001  0.60707247  1
  Al  Al28  1  0.25000001  1.00000000  0.60707247  1
  Al  Al29  1  0.25000000  0.50000000  0.60707247  1
  Al  Al30  1  0.74999999  0.00000001  0.60707248  1
  Al  Al31  1  0.75000000  0.49999999  0.60707247  1
  Cu  Cu32  1  0.50000000  0.49999999  0.39583333  1
  Cu  Cu33  1  0.50000000  0.99999999  0.39583333  1
  Cu  Cu34  1  1.00000000  0.49999999  0.39583333  1
  Cu  Cu35  1  1.00000000  0.99999999  0.39583333  1
  Cu  Cu36  1  0.25000000  0.25000000  0.47916667  1
  Cu  Cu37  1  0.25000000  0.75000000  0.47916667  1
  Cu  Cu38  1  0.75000000  0.25000000  0.47916667  1
  Cu  Cu39  1  0.75000000  0.75000000  0.47916667  1
  Cu  Cu40  1  0.50000000  0.49999999  0.56250000  1
  Cu  Cu41  1  0.50000000  0.99999999  0.56250000  1
  Cu  Cu42  1  1.00000000  0.49999999  0.56250000  1
  Cu  Cu43  1  1.00000000  0.99999999  0.56250000  1
  Cu  Cu44  1  0.24999999  0.25000003  0.64466483  1
  Cu  Cu45  1  0.25000000  0.74999997  0.64466484  1
  Cu  Cu46  1  0.75000000  0.25000003  0.64466483  1
  Cu  Cu47  1  0.75000001  0.74999997  0.64466485  1
  Pd  Pd48  1  0.50000000  0.00000000  0.47916667  1
  Pd  Pd49  1  0.50000000  0.50000000  0.47916667  1
  Pd  Pd50  1  1.00000000  0.00000000  0.47916667  1
  Pd  Pd51  1  1.00000000  0.50000000  0.47916667  1
  Pd  Pd52  1  0.25000000  0.25000000  0.39583333  1
  Pd  Pd53  1  0.25000000  0.75000000  0.39583333  1
  Pd  Pd54  1  0.75000000  0.25000000  0.39583333  1
  Pd  Pd55  1  0.75000000  0.75000000  0.39583333  1
  Pd  Pd56  1  0.49999998  1.00000000  0.64288932  1
  Pd  Pd57  1  0.49999997  0.50000000  0.64288931  1
  Pd  Pd58  1  0.00000002  0.00000000  0.64288931  1
  Pd  Pd59  1  0.00000002  0.49999999  0.64288932  1
  Pd  Pd60  1  0.25000000  0.25000000  0.56250000  1
  Pd  Pd61  1  0.25000000  0.75000000  0.56250000  1
  Pd  Pd62  1  0.75000000  0.25000000  0.56250000  1
  Pd  Pd63  1  0.75000000  0.75000000  0.56250000  1
