# generated using pymatgen
data_YInCu2
_symmetry_space_group_name_H-M   'P 1'
_cell_length_a   9.51301172
_cell_length_b   9.51301772
_cell_length_c   34.95305841
_cell_angle_alpha   89.99979974
_cell_angle_beta   89.99986226
_cell_angle_gamma   60.00009924
_symmetry_Int_Tables_number   1
_chemical_formula_structural   YInCu2
_chemical_formula_sum   'Y12 In12 Cu24'
_cell_volume   2739.38192702
_cell_formula_units_Z   12
loop_
 _symmetry_equiv_pos_site_id
 _symmetry_equiv_pos_as_xyz
  1  'x, y, z'
loop_
 _atom_site_type_symbol
 _atom_site_label
 _atom_site_symmetry_multiplicity
 _atom_site_fract_x
 _atom_site_fract_y
 _atom_site_fract_z
 _atom_site_occupancy
  Cu  Cu0  1  0.45833333  0.45833333  0.43055555  1
  Cu  Cu1  1  0.45833333  0.95833333  0.43055555  1
  Cu  Cu2  1  0.95833333  0.45833333  0.43055555  1
  Cu  Cu3  1  0.95833333  0.95833333  0.43055555  1
  Cu  Cu4  1  0.12500001  0.12500000  0.37500000  1
  Cu  Cu5  1  0.12500001  0.62500000  0.37500000  1
  Cu  Cu6  1  0.62500001  0.12500000  0.37500000  1
  Cu  Cu7  1  0.62500001  0.62500000  0.37500000  1
  Cu  Cu8  1  0.12500000  0.12499999  0.54166667  1
  Cu  Cu9  1  0.12500000  0.62499999  0.54166667  1
  Cu  Cu10  1  0.62500000  0.12499999  0.54166667  1
  Cu  Cu11  1  0.62500000  0.62499999  0.54166667  1
  Cu  Cu12  1  0.29166668  0.29166667  0.48611111  1
  Cu  Cu13  1  0.29166668  0.79166667  0.48611111  1
  Cu  Cu14  1  0.79166668  0.29166667  0.48611111  1
  Cu  Cu15  1  0.79166668  0.79166667  0.48611111  1
  Cu  Cu16  1  0.29169380  0.29169353  0.64629360  1
  Cu  Cu17  1  0.29169384  0.79169334  0.64629358  1
  Cu  Cu18  1  0.79169377  0.29169344  0.64629359  1
  Cu  Cu19  1  0.79169390  0.79169340  0.64629358  1
  Cu  Cu20  1  0.45835529  0.45835470  0.62620889  1
  Cu  Cu21  1  0.45835529  0.95835466  0.62620881  1
  Cu  Cu22  1  0.95835553  0.45835464  0.62620877  1
  Cu  Cu23  1  0.95835548  0.95835459  0.62620883  1
  In  In24  1  0.29166666  0.29166666  0.40277778  1
  In  In25  1  0.29166666  0.79166666  0.40277778  1
  In  In26  1  0.79166666  0.29166666  0.40277778  1
  In  In27  1  0.79166666  0.79166666  0.40277778  1
  In  In28  1  0.45833333  0.45833333  0.51388889  1
  In  In29  1  0.45833333  0.95833333  0.51388889  1
  In  In30  1  0.95833333  0.45833333  0.51388889  1
  In  In31  1  0.95833333  0.95833333  0.51388889  1
  In  In32  1  0.12500767  0.12500703  0.62524357  1
  In  In33  1  0.12500750  0.62500718  0.62524373  1
  In  In34  1  0.62500711  0.12500733  0.62524362  1
  In  In35  1  0.62500699  0.62500751  0.62524352  1
  Y  Y36  1  0.45833333  0.45833334  0.34722222  1
  Y  Y37  1  0.45833333  0.95833334  0.34722222  1
  Y  Y38  1  0.95833333  0.45833334  0.34722222  1
  Y  Y39  1  0.95833333  0.95833334  0.34722222  1
  Y  Y40  1  0.12500000  0.12500001  0.45833333  1
  Y  Y41  1  0.12500000  0.62500001  0.45833333  1
  Y  Y42  1  0.62500000  0.12500001  0.45833333  1
  Y  Y43  1  0.62500000  0.62500001  0.45833333  1
  Y  Y44  1  0.29166667  0.29166668  0.56944445  1
  Y  Y45  1  0.29166667  0.79166668  0.56944445  1
  Y  Y46  1  0.79166667  0.29166668  0.56944445  1
  Y  Y47  1  0.79166667  0.79166668  0.56944445  1
