# generated using pymatgen
data_Ti2MoPd
_symmetry_space_group_name_H-M   'P 1'
_cell_length_a   8.96748175
_cell_length_b   8.96748285
_cell_length_c   38.04577503
_cell_angle_alpha   89.99997208
_cell_angle_beta   89.99997936
_cell_angle_gamma   89.99990557
_symmetry_Int_Tables_number   1
_chemical_formula_structural   Ti2MoPd
_chemical_formula_sum   'Ti32 Mo16 Pd16'
_cell_volume   3059.47910729
_cell_formula_units_Z   16
loop_
 _symmetry_equiv_pos_site_id
 _symmetry_equiv_pos_as_xyz
  1  'x, y, z'
loop_
 _atom_site_type_symbol
 _atom_site_label
 _atom_site_symmetry_multiplicity
 _atom_site_fract_x
 _atom_site_fract_y
 _atom_site_fract_z
 _atom_site_occupancy
  Mo  Mo0  1  0.49999999  0.49999999  0.38838118  1
  Mo  Mo1  1  0.49999999  0.99999999  0.38838118  1
  Mo  Mo2  1  0.99999999  0.49999999  0.38838118  1
  Mo  Mo3  1  0.99999999  0.99999999  0.38838118  1
  Mo  Mo4  1  0.25000085  0.24999998  0.47171493  1
  Mo  Mo5  1  0.25000085  0.74999998  0.47171493  1
  Mo  Mo6  1  0.75000085  0.24999998  0.47171493  1
  Mo  Mo7  1  0.75000085  0.74999998  0.47171493  1
  Mo  Mo8  1  0.49999999  0.49999999  0.55504785  1
  Mo  Mo9  1  0.49999999  0.99999999  0.55504785  1
  Mo  Mo10  1  0.99999999  0.49999999  0.55504785  1
  Mo  Mo11  1  0.99999999  0.99999999  0.55504785  1
  Mo  Mo12  1  0.25000055  0.25000015  0.63399205  1
  Mo  Mo13  1  0.25000101  0.74999971  0.63399164  1
  Mo  Mo14  1  0.75000024  0.25000023  0.63399221  1
  Mo  Mo15  1  0.74999978  0.74999966  0.63399188  1
  Pd  Pd16  1  0.00000001  0.49999998  0.47171477  1
  Pd  Pd17  1  0.00000001  0.99999998  0.47171477  1
  Pd  Pd18  1  0.50000001  0.49999998  0.47171477  1
  Pd  Pd19  1  0.50000001  0.99999998  0.47171477  1
  Pd  Pd20  1  0.25000084  0.24999999  0.38838141  1
  Pd  Pd21  1  0.25000084  0.74999999  0.38838141  1
  Pd  Pd22  1  0.75000084  0.24999999  0.38838141  1
  Pd  Pd23  1  0.75000084  0.74999999  0.38838141  1
  Pd  Pd24  1  0.00000034  0.50000001  0.63626730  1
  Pd  Pd25  1  0.00000028  0.99999985  0.63626722  1
  Pd  Pd26  1  0.50000013  0.50000016  0.63626737  1
  Pd  Pd27  1  0.50000017  0.99999969  0.63626728  1
  Pd  Pd28  1  0.25000084  0.24999999  0.55504808  1
  Pd  Pd29  1  0.25000084  0.74999999  0.55504808  1
  Pd  Pd30  1  0.75000084  0.24999999  0.55504808  1
  Pd  Pd31  1  0.75000084  0.74999999  0.55504808  1
  Ti  Ti32  1  0.00000086  0.25000007  0.34671487  1
  Ti  Ti33  1  0.00000086  0.75000007  0.34671487  1
  Ti  Ti34  1  0.50000086  0.25000007  0.34671487  1
  Ti  Ti35  1  0.50000086  0.75000007  0.34671487  1
  Ti  Ti36  1  0.24999986  0.49999998  0.34671482  1
  Ti  Ti37  1  0.24999986  0.99999998  0.34671482  1
  Ti  Ti38  1  0.74999986  0.49999998  0.34671482  1
  Ti  Ti39  1  0.74999986  0.99999998  0.34671482  1
  Ti  Ti40  1  0.25000010  0.49999998  0.43004799  1
  Ti  Ti41  1  0.25000010  0.99999998  0.43004799  1
  Ti  Ti42  1  0.75000010  0.49999998  0.43004799  1
  Ti  Ti43  1  0.75000010  0.99999998  0.43004799  1
  Ti  Ti44  1  0.00000080  0.25000004  0.43004793  1
  Ti  Ti45  1  0.00000080  0.75000004  0.43004793  1
  Ti  Ti46  1  0.50000080  0.25000004  0.43004793  1
  Ti  Ti47  1  0.50000080  0.75000004  0.43004793  1
  Ti  Ti48  1  0.00000086  0.25000007  0.51338154  1
  Ti  Ti49  1  0.00000086  0.75000007  0.51338154  1
  Ti  Ti50  1  0.50000086  0.25000007  0.51338154  1
  Ti  Ti51  1  0.50000086  0.75000007  0.51338154  1
  Ti  Ti52  1  0.24999986  0.49999998  0.51338149  1
  Ti  Ti53  1  0.24999986  0.99999998  0.51338149  1
  Ti  Ti54  1  0.74999986  0.49999998  0.51338149  1
  Ti  Ti55  1  0.74999986  0.99999998  0.51338149  1
  Ti  Ti56  1  0.25000046  0.49999937  0.59803531  1
  Ti  Ti57  1  0.25000049  0.00000064  0.59803535  1
  Ti  Ti58  1  0.75000002  0.49999926  0.59803531  1
  Ti  Ti59  1  0.74999997  0.00000071  0.59803535  1
  Ti  Ti60  1  0.00000027  0.25000012  0.59803547  1
  Ti  Ti61  1  0.00000034  0.74999989  0.59803559  1
  Ti  Ti62  1  0.50000085  0.25000011  0.59803554  1
  Ti  Ti63  1  0.50000075  0.74999991  0.59803542  1
