# generated using pymatgen
data_CuAu3
_symmetry_space_group_name_H-M   'P 1'
_cell_length_a   11.55914446
_cell_length_b   11.55914510
_cell_length_c   57.21484556
_cell_angle_alpha   90.00000228
_cell_angle_beta   45.00000186
_cell_angle_gamma   59.99999951
_symmetry_Int_Tables_number   1
_chemical_formula_structural   CuAu3
_chemical_formula_sum   'Cu20 Au60'
_cell_volume   3822.34724601
_cell_formula_units_Z   20
loop_
 _symmetry_equiv_pos_site_id
 _symmetry_equiv_pos_as_xyz
  1  'x, y, z'
loop_
 _atom_site_type_symbol
 _atom_site_label
 _atom_site_symmetry_multiplicity
 _atom_site_fract_x
 _atom_site_fract_y
 _atom_site_fract_z
 _atom_site_occupancy
  Cu  Cu0  1  0.00000001  0.50000000  0.35714286  1
  Cu  Cu1  1  0.00000001  1.00000000  0.35714286  1
  Cu  Cu2  1  0.50000001  0.50000000  0.35714286  1
  Cu  Cu3  1  0.50000001  1.00000000  0.35714286  1
  Cu  Cu4  1  0.00000001  0.50000000  0.42857143  1
  Cu  Cu5  1  0.00000001  1.00000000  0.42857143  1
  Cu  Cu6  1  0.50000001  0.50000000  0.42857143  1
  Cu  Cu7  1  0.50000001  1.00000000  0.42857143  1
  Cu  Cu8  1  0.00000001  0.50000000  0.50000000  1
  Cu  Cu9  1  0.00000001  1.00000000  0.50000000  1
  Cu  Cu10  1  0.50000001  0.50000000  0.50000000  1
  Cu  Cu11  1  0.50000001  1.00000000  0.50000000  1
  Cu  Cu12  1  0.00000001  0.50000000  0.57142857  1
  Cu  Cu13  1  0.00000001  1.00000000  0.57142857  1
  Cu  Cu14  1  0.50000001  0.50000000  0.57142857  1
  Cu  Cu15  1  0.50000001  1.00000000  0.57142857  1
  Cu  Cu16  1  0.01587491  0.49206264  0.63945122  1
  Cu  Cu17  1  0.01587508  0.99206257  0.63945120  1
  Cu  Cu18  1  0.51587515  0.49206253  0.63945121  1
  Cu  Cu19  1  0.51587526  0.99206255  0.63945118  1
  Au  Au20  1  0.24999999  0.00000000  0.35714286  1
  Au  Au21  1  0.24999999  0.50000000  0.35714286  1
  Au  Au22  1  0.74999999  0.00000000  0.35714286  1
  Au  Au23  1  0.74999999  0.50000000  0.35714286  1
  Au  Au24  1  0.00000000  0.25000000  0.35714286  1
  Au  Au25  1  0.00000000  0.75000000  0.35714286  1
  Au  Au26  1  0.50000000  0.25000000  0.35714286  1
  Au  Au27  1  0.50000000  0.75000000  0.35714286  1
  Au  Au28  1  0.25000000  0.25000000  0.35714286  1
  Au  Au29  1  0.25000000  0.75000000  0.35714286  1
  Au  Au30  1  0.75000000  0.25000000  0.35714286  1
  Au  Au31  1  0.75000000  0.75000000  0.35714286  1
  Au  Au32  1  0.24999999  0.00000000  0.42857143  1
  Au  Au33  1  0.24999999  0.50000000  0.42857143  1
  Au  Au34  1  0.74999999  0.00000000  0.42857143  1
  Au  Au35  1  0.74999999  0.50000000  0.42857143  1
  Au  Au36  1  0.00000000  0.25000000  0.42857143  1
  Au  Au37  1  0.00000000  0.75000000  0.42857143  1
  Au  Au38  1  0.50000000  0.25000000  0.42857143  1
  Au  Au39  1  0.50000000  0.75000000  0.42857143  1
  Au  Au40  1  0.25000000  0.25000000  0.42857143  1
  Au  Au41  1  0.25000000  0.75000000  0.42857143  1
  Au  Au42  1  0.75000000  0.25000000  0.42857143  1
  Au  Au43  1  0.75000000  0.75000000  0.42857143  1
  Au  Au44  1  0.24999999  0.00000000  0.50000000  1
  Au  Au45  1  0.24999999  0.50000000  0.50000000  1
  Au  Au46  1  0.74999999  0.00000000  0.50000000  1
  Au  Au47  1  0.74999999  0.50000000  0.50000000  1
  Au  Au48  1  0.00000000  0.25000000  0.50000000  1
  Au  Au49  1  0.00000000  0.75000000  0.50000000  1
  Au  Au50  1  0.50000000  0.25000000  0.50000000  1
  Au  Au51  1  0.50000000  0.75000000  0.50000000  1
  Au  Au52  1  0.25000000  0.25000000  0.50000000  1
  Au  Au53  1  0.25000000  0.75000000  0.50000000  1
  Au  Au54  1  0.75000000  0.25000000  0.50000000  1
  Au  Au55  1  0.75000000  0.75000000  0.50000000  1
  Au  Au56  1  0.24999999  0.00000000  0.57142857  1
  Au  Au57  1  0.24999999  0.50000000  0.57142857  1
  Au  Au58  1  0.74999999  0.00000000  0.57142857  1
  Au  Au59  1  0.74999999  0.50000000  0.57142857  1
  Au  Au60  1  0.00000000  0.25000000  0.57142857  1
  Au  Au61  1  0.00000000  0.75000000  0.57142857  1
  Au  Au62  1  0.50000000  0.25000000  0.57142857  1
  Au  Au63  1  0.50000000  0.75000000  0.57142857  1
  Au  Au64  1  0.25000000  0.25000000  0.57142857  1
  Au  Au65  1  0.25000000  0.75000000  0.57142857  1
  Au  Au66  1  0.75000000  0.25000000  0.57142857  1
  Au  Au67  1  0.75000000  0.75000000  0.57142857  1
  Au  Au68  1  0.23935639  0.00706334  0.64488773  1
  Au  Au69  1  0.23935628  0.50706332  0.64488773  1
  Au  Au70  1  0.73935656  0.00706321  0.64488771  1
  Au  Au71  1  0.73935633  0.50706341  0.64488778  1
  Au  Au72  1  0.99284401  0.25357841  0.64488766  1
  Au  Au73  1  0.99284397  0.75357826  0.64488767  1
  Au  Au74  1  0.49284455  0.25357801  0.64488756  1
  Au  Au75  1  0.49284419  0.75357826  0.64488764  1
  Au  Au76  1  0.23935604  0.25358091  0.64488774  1
  Au  Au77  1  0.23935617  0.75358080  0.64488772  1
  Au  Au78  1  0.73935645  0.25358067  0.64488769  1
  Au  Au79  1  0.73935612  0.75358080  0.64488778  1
