# generated using pymatgen
data_ScInCu2
_symmetry_space_group_name_H-M   'P 1'
_cell_length_a   9.19148287
_cell_length_b   9.19148635
_cell_length_c   33.77168481
_cell_angle_alpha   89.99998354
_cell_angle_beta   89.99997719
_cell_angle_gamma   59.99998498
_symmetry_Int_Tables_number   1
_chemical_formula_structural   ScInCu2
_chemical_formula_sum   'Sc12 In12 Cu24'
_cell_volume   2470.89688507
_cell_formula_units_Z   12
loop_
 _symmetry_equiv_pos_site_id
 _symmetry_equiv_pos_as_xyz
  1  'x, y, z'
loop_
 _atom_site_type_symbol
 _atom_site_label
 _atom_site_symmetry_multiplicity
 _atom_site_fract_x
 _atom_site_fract_y
 _atom_site_fract_z
 _atom_site_occupancy
  Cu  Cu0  1  0.08333338  0.45833331  0.42537305  1
  Cu  Cu1  1  0.08333338  0.95833331  0.42537305  1
  Cu  Cu2  1  0.58333338  0.45833331  0.42537305  1
  Cu  Cu3  1  0.58333338  0.95833331  0.42537305  1
  Cu  Cu4  1  0.25000032  0.12499998  0.36981739  1
  Cu  Cu5  1  0.25000032  0.62499998  0.36981739  1
  Cu  Cu6  1  0.75000032  0.12499998  0.36981739  1
  Cu  Cu7  1  0.75000032  0.62499998  0.36981739  1
  Cu  Cu8  1  0.25000032  0.12499998  0.53648405  1
  Cu  Cu9  1  0.25000032  0.62499998  0.53648405  1
  Cu  Cu10  1  0.75000032  0.12499998  0.53648405  1
  Cu  Cu11  1  0.75000032  0.62499998  0.53648405  1
  Cu  Cu12  1  0.41666685  0.29166664  0.48092856  1
  Cu  Cu13  1  0.41666685  0.79166664  0.48092856  1
  Cu  Cu14  1  0.91666685  0.29166664  0.48092856  1
  Cu  Cu15  1  0.91666685  0.79166664  0.48092856  1
  Cu  Cu16  1  0.41666418  0.29166728  0.64008027  1
  Cu  Cu17  1  0.41666458  0.79166644  0.64008005  1
  Cu  Cu18  1  0.91666348  0.29166520  0.64007996  1
  Cu  Cu19  1  0.91666533  0.79166488  0.64008037  1
  Cu  Cu20  1  0.08332749  0.45833090  0.61172855  1
  Cu  Cu21  1  0.08332666  0.95833315  0.61172872  1
  Cu  Cu22  1  0.58332921  0.45832806  0.61172876  1
  Cu  Cu23  1  0.58332502  0.95832867  0.61172875  1
  In  In24  1  0.41666682  0.29166661  0.39759522  1
  In  In25  1  0.41666682  0.79166661  0.39759522  1
  In  In26  1  0.91666682  0.29166661  0.39759522  1
  In  In27  1  0.91666682  0.79166661  0.39759522  1
  In  In28  1  0.08333335  0.45833327  0.50870639  1
  In  In29  1  0.08333335  0.95833327  0.50870639  1
  In  In30  1  0.58333335  0.45833327  0.50870639  1
  In  In31  1  0.58333335  0.95833327  0.50870639  1
  In  In32  1  0.25001062  0.12500350  0.61991630  1
  In  In33  1  0.25001201  0.62500433  0.61991653  1
  In  In34  1  0.75001343  0.12501298  0.61991640  1
  In  In35  1  0.75000940  0.62500568  0.61991637  1
  Sc  Sc36  1  0.08333336  0.45833344  0.34203972  1
  Sc  Sc37  1  0.08333336  0.95833344  0.34203972  1
  Sc  Sc38  1  0.58333336  0.45833344  0.34203972  1
  Sc  Sc39  1  0.58333336  0.95833344  0.34203972  1
  Sc  Sc40  1  0.25000031  0.12500010  0.45315073  1
  Sc  Sc41  1  0.25000031  0.62500010  0.45315073  1
  Sc  Sc42  1  0.75000031  0.12500010  0.45315073  1
  Sc  Sc43  1  0.75000031  0.62500010  0.45315073  1
  Sc  Sc44  1  0.41666683  0.29166677  0.56426189  1
  Sc  Sc45  1  0.41666683  0.79166677  0.56426189  1
  Sc  Sc46  1  0.91666683  0.29166677  0.56426189  1
  Sc  Sc47  1  0.91666683  0.79166677  0.56426189  1
