# generated using pymatgen
data_ScInCu2
_symmetry_space_group_name_H-M   'P 1'
_cell_length_a   9.19148287
_cell_length_b   9.19148635
_cell_length_c   33.77168481
_cell_angle_alpha   89.99998354
_cell_angle_beta   89.99997719
_cell_angle_gamma   59.99998498
_symmetry_Int_Tables_number   1
_chemical_formula_structural   ScInCu2
_chemical_formula_sum   'Sc12 In12 Cu24'
_cell_volume   2470.89688507
_cell_formula_units_Z   12
loop_
 _symmetry_equiv_pos_site_id
 _symmetry_equiv_pos_as_xyz
  1  'x, y, z'
loop_
 _atom_site_type_symbol
 _atom_site_label
 _atom_site_symmetry_multiplicity
 _atom_site_fract_x
 _atom_site_fract_y
 _atom_site_fract_z
 _atom_site_occupancy
  Cu  Cu0  1  0.29166724  0.29166676  0.64678057  1
  Cu  Cu1  1  0.29166902  0.79166590  0.64678050  1
  Cu  Cu2  1  0.79166896  0.29166603  0.64678044  1
  Cu  Cu3  1  0.79166715  0.79166671  0.64678052  1
  Cu  Cu4  1  0.45833350  0.45833227  0.61071788  1
  Cu  Cu5  1  0.45833871  0.95833204  0.61071798  1
  Cu  Cu6  1  0.95833856  0.45833203  0.61071783  1
  Cu  Cu7  1  0.95833396  0.95833184  0.61071779  1
  Cu  Cu8  1  0.12499999  0.12500002  0.54166667  1
  Cu  Cu9  1  0.12499999  0.62500002  0.54166667  1
  Cu  Cu10  1  0.62499999  0.12500002  0.54166667  1
  Cu  Cu11  1  0.62499999  0.62500002  0.54166667  1
  Cu  Cu12  1  0.29166665  0.29166669  0.48611111  1
  Cu  Cu13  1  0.29166665  0.79166669  0.48611111  1
  Cu  Cu14  1  0.79166665  0.29166669  0.48611111  1
  Cu  Cu15  1  0.79166665  0.79166669  0.48611111  1
  Cu  Cu16  1  0.45833332  0.45833335  0.43055556  1
  Cu  Cu17  1  0.45833332  0.95833335  0.43055556  1
  Cu  Cu18  1  0.95833332  0.45833335  0.43055556  1
  Cu  Cu19  1  0.95833332  0.95833335  0.43055556  1
  Cu  Cu20  1  0.12499999  0.12500002  0.37500000  1
  Cu  Cu21  1  0.12499999  0.62500002  0.37500000  1
  Cu  Cu22  1  0.62499999  0.12500002  0.37500000  1
  Cu  Cu23  1  0.62499999  0.62500002  0.37500000  1
  In  In24  1  0.29166659  0.29166673  0.56944444  1
  In  In25  1  0.29166659  0.79166673  0.56944444  1
  In  In26  1  0.79166659  0.29166673  0.56944444  1
  In  In27  1  0.79166659  0.79166673  0.56944444  1
  In  In28  1  0.12499992  0.12500006  0.45833333  1
  In  In29  1  0.12499992  0.62500006  0.45833333  1
  In  In30  1  0.62499992  0.12500006  0.45833333  1
  In  In31  1  0.62499992  0.62500006  0.45833333  1
  In  In32  1  0.45833326  0.45833339  0.34722222  1
  In  In33  1  0.45833326  0.95833339  0.34722222  1
  In  In34  1  0.95833326  0.45833339  0.34722222  1
  In  In35  1  0.95833326  0.95833339  0.34722222  1
  Sc  Sc36  1  0.12499397  0.12500698  0.62433224  1
  Sc  Sc37  1  0.12499626  0.62500089  0.62433135  1
  Sc  Sc38  1  0.62499713  0.12499984  0.62433147  1
  Sc  Sc39  1  0.62499495  0.62500605  0.62433280  1
  Sc  Sc40  1  0.45833343  0.45833323  0.51388889  1
  Sc  Sc41  1  0.45833343  0.95833323  0.51388889  1
  Sc  Sc42  1  0.95833343  0.45833323  0.51388889  1
  Sc  Sc43  1  0.95833343  0.95833323  0.51388889  1
  Sc  Sc44  1  0.29166676  0.29166656  0.40277778  1
  Sc  Sc45  1  0.29166676  0.79166656  0.40277778  1
  Sc  Sc46  1  0.79166676  0.29166656  0.40277778  1
  Sc  Sc47  1  0.79166676  0.79166656  0.40277778  1
