# generated using pymatgen
data_YCuPb
_symmetry_space_group_name_H-M   'P 1'
_cell_length_a   8.10741843
_cell_length_b   8.81236810
_cell_length_c   65.53148304
_cell_angle_alpha   74.59843946
_cell_angle_beta   30.00000323
_cell_angle_gamma   62.61274868
_symmetry_Int_Tables_number   1
_chemical_formula_structural   YCuPb
_chemical_formula_sum   'Y10 Cu10 Pb10'
_cell_volume   1983.42747608
_cell_formula_units_Z   10
loop_
 _symmetry_equiv_pos_site_id
 _symmetry_equiv_pos_as_xyz
  1  'x, y, z'
loop_
 _atom_site_type_symbol
 _atom_site_label
 _atom_site_symmetry_multiplicity
 _atom_site_fract_x
 _atom_site_fract_y
 _atom_site_fract_z
 _atom_site_occupancy
  Y  Y0  1  0.49925883  0.50074111  0.67426883  1
  Y  Y1  1  0.99925886  0.00074095  0.63855454  1
  Y  Y2  1  0.49925883  0.50074111  0.60284026  1
  Y  Y3  1  0.99925886  0.00074095  0.56712597  1
  Y  Y4  1  0.49925883  0.50074111  0.53141169  1
  Y  Y5  1  0.99925886  0.00074095  0.49569740  1
  Y  Y6  1  0.49925883  0.50074111  0.45998312  1
  Y  Y7  1  0.99925886  0.00074095  0.42426883  1
  Y  Y8  1  0.49925883  0.50074111  0.38855454  1
  Y  Y9  1  0.99925886  0.00074095  0.35284025  1
  Cu  Cu10  1  0.48993118  0.17673531  0.50826843  1
  Cu  Cu11  1  0.70433012  0.67373705  0.75163916  1
  Cu  Cu12  1  0.48993118  0.17673531  0.43683986  1
  Cu  Cu13  1  0.65659848  0.67673477  0.68683980  1
  Cu  Cu14  1  0.48993118  0.17673531  0.36541129  1
  Cu  Cu15  1  0.65659848  0.67673477  0.61541123  1
  Cu  Cu16  1  0.48993118  0.17673531  0.29398272  1
  Cu  Cu17  1  0.65659848  0.67673477  0.54398266  1
  Cu  Cu18  1  0.48993118  0.17673531  0.22255415  1
  Cu  Cu19  1  0.65659848  0.67673477  0.47255409  1
  Pb  Pb20  1  0.06260999  0.27072315  0.58641042  1
  Pb  Pb21  1  0.89594200  0.77072472  0.69355336  1
  Pb  Pb22  1  0.06260999  0.27072315  0.51498185  1
  Pb  Pb23  1  0.89594200  0.77072472  0.62212479  1
  Pb  Pb24  1  0.06260999  0.27072315  0.44355328  1
  Pb  Pb25  1  0.89594200  0.77072472  0.55069622  1
  Pb  Pb26  1  0.06260999  0.27072315  0.37212471  1
  Pb  Pb27  1  0.89594200  0.77072472  0.47926765  1
  Pb  Pb28  1  0.06260999  0.27072315  0.30069614  1
  Pb  Pb29  1  0.89594200  0.77072472  0.40783907  1
