# generated using pymatgen
data_YCuPb
_symmetry_space_group_name_H-M   'P 1'
_cell_length_a   8.10741843
_cell_length_b   8.81236810
_cell_length_c   65.53148304
_cell_angle_alpha   74.59843946
_cell_angle_beta   30.00000323
_cell_angle_gamma   62.61274868
_symmetry_Int_Tables_number   1
_chemical_formula_structural   YCuPb
_chemical_formula_sum   'Y10 Cu10 Pb10'
_cell_volume   1983.42747608
_cell_formula_units_Z   10
loop_
 _symmetry_equiv_pos_site_id
 _symmetry_equiv_pos_as_xyz
  1  'x, y, z'
loop_
 _atom_site_type_symbol
 _atom_site_label
 _atom_site_symmetry_multiplicity
 _atom_site_fract_x
 _atom_site_fract_y
 _atom_site_fract_z
 _atom_site_occupancy
  Y  Y0  1  0.49925883  0.50074111  0.62971435  1
  Y  Y1  1  0.99925886  0.00074095  0.59400006  1
  Y  Y2  1  0.49925883  0.50074111  0.55828578  1
  Y  Y3  1  0.99925886  0.00074095  0.52257149  1
  Y  Y4  1  0.49925883  0.50074111  0.48685721  1
  Y  Y5  1  0.99925886  0.00074095  0.45114292  1
  Y  Y6  1  0.49925883  0.50074111  0.41542864  1
  Y  Y7  1  0.99925886  0.00074095  0.37971435  1
  Y  Y8  1  0.49925883  0.50074111  0.34400007  1
  Y  Y9  1  0.99925886  0.00074095  0.30828578  1
  Cu  Cu10  1  0.48993118  0.17673531  0.46371395  1
  Cu  Cu11  1  0.67626876  0.68475184  0.77968023  1
  Cu  Cu12  1  0.48993118  0.17673531  0.39228538  1
  Cu  Cu13  1  0.65659848  0.67673477  0.71371390  1
  Cu  Cu14  1  0.48993118  0.17673531  0.32085681  1
  Cu  Cu15  1  0.65659848  0.67673477  0.64228533  1
  Cu  Cu16  1  0.48993118  0.17673531  0.24942824  1
  Cu  Cu17  1  0.65659848  0.67673477  0.57085676  1
  Cu  Cu18  1  0.48993118  0.17673531  0.17799967  1
  Cu  Cu19  1  0.65659848  0.67673477  0.49942819  1
  Pb  Pb20  1  0.06260999  0.27072315  0.54185595  1
  Pb  Pb21  1  0.89594200  0.77072472  0.72042745  1
  Pb  Pb22  1  0.06260999  0.27072315  0.47042737  1
  Pb  Pb23  1  0.89594200  0.77072472  0.64899888  1
  Pb  Pb24  1  0.06260999  0.27072315  0.39899880  1
  Pb  Pb25  1  0.89594200  0.77072472  0.57757031  1
  Pb  Pb26  1  0.06260999  0.27072315  0.32757023  1
  Pb  Pb27  1  0.89594200  0.77072472  0.50614174  1
  Pb  Pb28  1  0.06260999  0.27072315  0.25614166  1
  Pb  Pb29  1  0.89594200  0.77072472  0.43471317  1
