# generated using pymatgen
data_CuAu3
_symmetry_space_group_name_H-M   'P 1'
_cell_length_a   8.17354937
_cell_length_b   8.17354957
_cell_length_c   32.69419881
_cell_angle_alpha   90.00000350
_cell_angle_beta   89.99999860
_cell_angle_gamma   90.00000189
_symmetry_Int_Tables_number   1
_chemical_formula_structural   CuAu3
_chemical_formula_sum   'Cu12 Au36'
_cell_volume   2184.19842811
_cell_formula_units_Z   12
loop_
 _symmetry_equiv_pos_site_id
 _symmetry_equiv_pos_as_xyz
  1  'x, y, z'
loop_
 _atom_site_type_symbol
 _atom_site_label
 _atom_site_symmetry_multiplicity
 _atom_site_fract_x
 _atom_site_fract_y
 _atom_site_fract_z
 _atom_site_occupancy
  Cu  Cu0  1  0.50000000  0.50000000  0.40625000  1
  Cu  Cu1  1  0.50000000  1.00000000  0.40625000  1
  Cu  Cu2  1  1.00000000  0.50000000  0.40625000  1
  Cu  Cu3  1  1.00000000  1.00000000  0.40625000  1
  Cu  Cu4  1  0.50000000  0.50000000  0.53125000  1
  Cu  Cu5  1  0.50000000  1.00000000  0.53125000  1
  Cu  Cu6  1  1.00000000  0.50000000  0.53125000  1
  Cu  Cu7  1  1.00000000  1.00000000  0.53125000  1
  Cu  Cu8  1  0.50000000  0.50000000  0.65070018  1
  Cu  Cu9  1  0.50000001  1.00000000  0.65070058  1
  Cu  Cu10  1  1.00000000  0.50000001  0.65070063  1
  Cu  Cu11  1  0.00000000  1.00000000  0.65070016  1
  Au  Au12  1  0.25000000  0.00000000  0.34375000  1
  Au  Au13  1  0.25000000  0.50000000  0.34375000  1
  Au  Au14  1  0.75000000  0.00000000  0.34375000  1
  Au  Au15  1  0.75000000  0.50000000  0.34375000  1
  Au  Au16  1  0.00000000  0.25000000  0.34375000  1
  Au  Au17  1  0.00000000  0.75000000  0.34375000  1
  Au  Au18  1  0.50000000  0.25000000  0.34375000  1
  Au  Au19  1  0.50000000  0.75000000  0.34375000  1
  Au  Au20  1  0.25000000  0.25000000  0.40625000  1
  Au  Au21  1  0.25000000  0.75000000  0.40625000  1
  Au  Au22  1  0.75000000  0.25000000  0.40625000  1
  Au  Au23  1  0.75000000  0.75000000  0.40625000  1
  Au  Au24  1  0.25000000  0.00000000  0.46875000  1
  Au  Au25  1  0.25000000  0.50000000  0.46875000  1
  Au  Au26  1  0.75000000  0.00000000  0.46875000  1
  Au  Au27  1  0.75000000  0.50000000  0.46875000  1
  Au  Au28  1  0.00000000  0.25000000  0.46875000  1
  Au  Au29  1  0.00000000  0.75000000  0.46875000  1
  Au  Au30  1  0.50000000  0.25000000  0.46875000  1
  Au  Au31  1  0.50000000  0.75000000  0.46875000  1
  Au  Au32  1  0.25000000  0.25000000  0.53125000  1
  Au  Au33  1  0.25000000  0.75000000  0.53125000  1
  Au  Au34  1  0.75000000  0.25000000  0.53125000  1
  Au  Au35  1  0.75000000  0.75000000  0.53125000  1
  Au  Au36  1  0.25000000  0.00000000  0.59375000  1
  Au  Au37  1  0.25000000  0.50000000  0.59375000  1
  Au  Au38  1  0.75000000  0.00000000  0.59375000  1
  Au  Au39  1  0.75000000  0.50000000  0.59375000  1
  Au  Au40  1  0.00000000  0.25000000  0.59375000  1
  Au  Au41  1  0.00000000  0.75000000  0.59375000  1
  Au  Au42  1  0.50000000  0.25000000  0.59375000  1
  Au  Au43  1  0.50000000  0.75000000  0.59375000  1
  Au  Au44  1  0.24999990  0.25000017  0.65790011  1
  Au  Au45  1  0.24999994  0.74999990  0.65790013  1
  Au  Au46  1  0.75000008  0.25000012  0.65790013  1
  Au  Au47  1  0.75000004  0.74999990  0.65790012  1
