# generated using pymatgen
data_SrCuBi
_symmetry_space_group_name_H-M   'P 1'
_cell_length_a   9.47721258
_cell_length_b   9.47719905
_cell_length_c   45.64771797
_cell_angle_alpha   89.99998700
_cell_angle_beta   90.00000363
_cell_angle_gamma   120.00011404
_symmetry_Int_Tables_number   1
_chemical_formula_structural   SrCuBi
_chemical_formula_sum   'Sr16 Cu16 Bi16'
_cell_volume   3550.66605343
_cell_formula_units_Z   16
loop_
 _symmetry_equiv_pos_site_id
 _symmetry_equiv_pos_as_xyz
  1  'x, y, z'
loop_
 _atom_site_type_symbol
 _atom_site_label
 _atom_site_symmetry_multiplicity
 _atom_site_fract_x
 _atom_site_fract_y
 _atom_site_fract_z
 _atom_site_occupancy
  Sr  Sr0  1  0.49999962  0.49999998  0.61216446  1
  Sr  Sr1  1  0.49999962  0.99999998  0.61216446  1
  Sr  Sr2  1  0.99999962  0.49999998  0.61216446  1
  Sr  Sr3  1  0.99999962  0.99999998  0.61216446  1
  Sr  Sr4  1  0.00000039  0.00000047  0.51216456  1
  Sr  Sr5  1  0.00000039  0.50000047  0.51216456  1
  Sr  Sr6  1  0.50000039  0.00000047  0.51216456  1
  Sr  Sr7  1  0.50000039  0.50000047  0.51216456  1
  Sr  Sr8  1  0.49999962  0.49999998  0.41216446  1
  Sr  Sr9  1  0.49999962  0.99999998  0.41216446  1
  Sr  Sr10  1  0.99999962  0.49999998  0.41216446  1
  Sr  Sr11  1  0.99999962  0.99999998  0.41216446  1
  Sr  Sr12  1  0.00000039  0.00000047  0.31216456  1
  Sr  Sr13  1  0.00000039  0.50000047  0.31216456  1
  Sr  Sr14  1  0.50000039  0.00000047  0.31216456  1
  Sr  Sr15  1  0.50000039  0.50000047  0.31216456  1
  Cu  Cu16  1  0.33333235  0.16666645  0.56216478  1
  Cu  Cu17  1  0.33333235  0.66666645  0.56216478  1
  Cu  Cu18  1  0.83333235  0.16666645  0.56216478  1
  Cu  Cu19  1  0.83333235  0.66666645  0.56216478  1
  Cu  Cu20  1  0.16667397  0.33333830  0.65831701  1
  Cu  Cu21  1  0.16667283  0.83333678  0.65831650  1
  Cu  Cu22  1  0.66667189  0.33333711  0.65831706  1
  Cu  Cu23  1  0.66667262  0.83333663  0.65831673  1
  Cu  Cu24  1  0.33333235  0.16666645  0.36216478  1
  Cu  Cu25  1  0.33333235  0.66666645  0.36216478  1
  Cu  Cu26  1  0.83333235  0.16666645  0.36216478  1
  Cu  Cu27  1  0.83333235  0.66666645  0.36216478  1
  Cu  Cu28  1  0.16666597  0.33333328  0.46216424  1
  Cu  Cu29  1  0.16666597  0.83333328  0.46216424  1
  Cu  Cu30  1  0.66666597  0.33333328  0.46216424  1
  Cu  Cu31  1  0.66666597  0.83333328  0.46216424  1
  Bi  Bi32  1  0.33333513  0.16667044  0.66491254  1
  Bi  Bi33  1  0.33332948  0.66665627  0.66491265  1
  Bi  Bi34  1  0.83332499  0.16666265  0.66491294  1
  Bi  Bi35  1  0.83331822  0.66665338  0.66491255  1
  Bi  Bi36  1  0.16666645  0.33333350  0.56216460  1
  Bi  Bi37  1  0.16666645  0.83333350  0.56216460  1
  Bi  Bi38  1  0.66666645  0.33333350  0.56216460  1
  Bi  Bi39  1  0.66666645  0.83333350  0.56216460  1
  Bi  Bi40  1  0.33333220  0.16666631  0.46216438  1
  Bi  Bi41  1  0.33333220  0.66666631  0.46216438  1
  Bi  Bi42  1  0.83333220  0.16666631  0.46216438  1
  Bi  Bi43  1  0.83333220  0.66666631  0.46216438  1
  Bi  Bi44  1  0.16666645  0.33333350  0.36216460  1
  Bi  Bi45  1  0.16666645  0.83333350  0.36216460  1
  Bi  Bi46  1  0.66666645  0.33333350  0.36216460  1
  Bi  Bi47  1  0.66666645  0.83333350  0.36216460  1
