# generated using pymatgen
data_Li2CuSn
_symmetry_space_group_name_H-M   'P 1'
_cell_length_a   9.00191294
_cell_length_b   9.00191425
_cell_length_c   38.19188378
_cell_angle_alpha   89.99999612
_cell_angle_beta   89.99999790
_cell_angle_gamma   90.00003157
_symmetry_Int_Tables_number   1
_chemical_formula_structural   Li2CuSn
_chemical_formula_sum   'Li32 Cu16 Sn16'
_cell_volume   3094.85823439
_cell_formula_units_Z   16
loop_
 _symmetry_equiv_pos_site_id
 _symmetry_equiv_pos_as_xyz
  1  'x, y, z'
loop_
 _atom_site_type_symbol
 _atom_site_label
 _atom_site_symmetry_multiplicity
 _atom_site_fract_x
 _atom_site_fract_y
 _atom_site_fract_z
 _atom_site_occupancy
  Cu  Cu0  1  0.24999985  0.49999977  0.64533694  1
  Cu  Cu1  1  0.24999985  0.99999981  0.64533701  1
  Cu  Cu2  1  0.74999987  0.49999978  0.64533701  1
  Cu  Cu3  1  0.74999987  0.99999983  0.64533693  1
  Cu  Cu4  1  0.49999973  0.25000002  0.56835940  1
  Cu  Cu5  1  0.49999973  0.75000002  0.56835940  1
  Cu  Cu6  1  0.99999973  0.25000002  0.56835940  1
  Cu  Cu7  1  0.99999973  0.75000002  0.56835940  1
  Cu  Cu8  1  0.25000001  0.50000000  0.48502606  1
  Cu  Cu9  1  0.25000001  1.00000000  0.48502606  1
  Cu  Cu10  1  0.75000001  0.50000000  0.48502606  1
  Cu  Cu11  1  0.75000001  1.00000000  0.48502606  1
  Cu  Cu12  1  0.49999973  0.25000002  0.40169273  1
  Cu  Cu13  1  0.49999973  0.75000002  0.40169273  1
  Cu  Cu14  1  0.99999973  0.25000002  0.40169273  1
  Cu  Cu15  1  0.99999973  0.75000002  0.40169273  1
  Li  Li16  1  0.49999991  0.99999996  0.60766134  1
  Li  Li17  1  0.49999984  0.50000002  0.60766134  1
  Li  Li18  1  0.99999985  0.00000001  0.60766133  1
  Li  Li19  1  0.99999992  0.49999997  0.60766134  1
  Li  Li20  1  0.49999975  0.24999998  0.65823882  1
  Li  Li21  1  0.49999973  0.75000000  0.65823888  1
  Li  Li22  1  0.99999973  0.25000001  0.65823885  1
  Li  Li23  1  0.99999973  0.74999999  0.65823883  1
  Li  Li24  1  0.24999971  0.25000002  0.52669268  1
  Li  Li25  1  0.24999971  0.75000002  0.52669268  1
  Li  Li26  1  0.74999971  0.25000002  0.52669268  1
  Li  Li27  1  0.74999971  0.75000002  0.52669268  1
  Li  Li28  1  0.24999999  0.49999998  0.56835940  1
  Li  Li29  1  0.24999999  0.99999998  0.56835940  1
  Li  Li30  1  0.74999999  0.49999998  0.56835940  1
  Li  Li31  1  0.74999999  0.99999998  0.56835940  1
  Li  Li32  1  0.49999943  0.00000001  0.44335943  1
  Li  Li33  1  0.49999943  0.50000001  0.44335943  1
  Li  Li34  1  0.99999943  0.00000001  0.44335943  1
  Li  Li35  1  0.99999943  0.50000001  0.44335943  1
  Li  Li36  1  0.49999972  0.24999999  0.48502606  1
  Li  Li37  1  0.49999972  0.74999999  0.48502606  1
  Li  Li38  1  0.99999972  0.24999999  0.48502606  1
  Li  Li39  1  0.99999972  0.74999999  0.48502606  1
  Li  Li40  1  0.24999971  0.25000002  0.36002601  1
  Li  Li41  1  0.24999971  0.75000002  0.36002601  1
  Li  Li42  1  0.74999971  0.25000002  0.36002601  1
  Li  Li43  1  0.74999971  0.75000002  0.36002601  1
  Li  Li44  1  0.24999999  0.49999998  0.40169273  1
  Li  Li45  1  0.24999999  0.99999998  0.40169273  1
  Li  Li46  1  0.74999999  0.49999998  0.40169273  1
  Li  Li47  1  0.74999999  0.99999998  0.40169273  1
  Sn  Sn48  1  0.00000002  0.49999996  0.52669266  1
  Sn  Sn49  1  0.00000002  0.99999996  0.52669266  1
  Sn  Sn50  1  0.50000002  0.49999996  0.52669266  1
  Sn  Sn51  1  0.50000002  0.99999996  0.52669266  1
  Sn  Sn52  1  0.24999969  0.25000063  0.61280399  1
  Sn  Sn53  1  0.24999981  0.74999981  0.61280399  1
  Sn  Sn54  1  0.74999982  0.24999989  0.61280400  1
  Sn  Sn55  1  0.74999969  0.75000051  0.61280400  1
  Sn  Sn56  1  0.00000002  0.49999996  0.36002599  1
  Sn  Sn57  1  0.00000002  0.99999996  0.36002599  1
  Sn  Sn58  1  0.50000002  0.49999996  0.36002599  1
  Sn  Sn59  1  0.50000002  0.99999996  0.36002599  1
  Sn  Sn60  1  0.24999972  0.25000002  0.44335946  1
  Sn  Sn61  1  0.24999972  0.75000002  0.44335946  1
  Sn  Sn62  1  0.74999972  0.25000002  0.44335946  1
  Sn  Sn63  1  0.74999972  0.75000002  0.44335946  1
