# generated using pymatgen
data_SrCuSn2
_symmetry_space_group_name_H-M   'P 1'
_cell_length_a   9.40186526
_cell_length_b   10.21982162
_cell_length_c   37.17488950
_cell_angle_alpha   89.99999826
_cell_angle_beta   89.99999902
_cell_angle_gamma   103.29653817
_symmetry_Int_Tables_number   1
_chemical_formula_structural   SrCuSn2
_chemical_formula_sum   'Sr12 Cu12 Sn24'
_cell_volume   3476.20915486
_cell_formula_units_Z   12
loop_
 _symmetry_equiv_pos_site_id
 _symmetry_equiv_pos_as_xyz
  1  'x, y, z'
loop_
 _atom_site_type_symbol
 _atom_site_label
 _atom_site_symmetry_multiplicity
 _atom_site_fract_x
 _atom_site_fract_y
 _atom_site_fract_z
 _atom_site_occupancy
  Cu  Cu0  1  0.41244193  0.64976772  0.34375000  1
  Cu  Cu1  1  0.91244193  0.64976772  0.34375000  1
  Cu  Cu2  1  0.08755816  0.35023266  0.40625000  1
  Cu  Cu3  1  0.58755816  0.35023266  0.40625000  1
  Cu  Cu4  1  0.41244193  0.64976772  0.46875000  1
  Cu  Cu5  1  0.91244193  0.64976772  0.46875000  1
  Cu  Cu6  1  0.08755816  0.35023266  0.53125000  1
  Cu  Cu7  1  0.58755816  0.35023266  0.53125000  1
  Cu  Cu8  1  0.41244193  0.64976772  0.59375000  1
  Cu  Cu9  1  0.91244193  0.64976772  0.59375000  1
  Cu  Cu10  1  0.08174514  0.32650603  0.64887255  1
  Cu  Cu11  1  0.58174380  0.32650218  0.64887364  1
  Sn  Sn12  1  0.37514778  0.50059112  0.40625000  1
  Sn  Sn13  1  0.87514778  0.50059112  0.40625000  1
  Sn  Sn14  1  0.02158936  0.08635740  0.40624999  1
  Sn  Sn15  1  0.52158936  0.08635740  0.40624999  1
  Sn  Sn16  1  0.12485222  0.49940893  0.34375000  1
  Sn  Sn17  1  0.62485222  0.49940893  0.34375000  1
  Sn  Sn18  1  0.47841064  0.91364258  0.34375000  1
  Sn  Sn19  1  0.97841064  0.91364258  0.34375000  1
  Sn  Sn20  1  0.37514778  0.50059112  0.53125000  1
  Sn  Sn21  1  0.87514778  0.50059112  0.53125000  1
  Sn  Sn22  1  0.02158936  0.08635740  0.53124999  1
  Sn  Sn23  1  0.52158936  0.08635740  0.53124999  1
  Sn  Sn24  1  0.12485222  0.49940893  0.46875000  1
  Sn  Sn25  1  0.62485222  0.49940893  0.46875000  1
  Sn  Sn26  1  0.47841064  0.91364258  0.46875000  1
  Sn  Sn27  1  0.97841064  0.91364258  0.46875000  1
  Sn  Sn28  1  0.37259835  0.48959438  0.65641127  1
  Sn  Sn29  1  0.87260067  0.48959493  0.65641133  1
  Sn  Sn30  1  0.01592407  0.06313032  0.66115555  1
  Sn  Sn31  1  0.51593377  0.06313626  0.66115504  1
  Sn  Sn32  1  0.12485222  0.49940893  0.59375000  1
  Sn  Sn33  1  0.62485222  0.49940893  0.59375000  1
  Sn  Sn34  1  0.47841064  0.91364258  0.59375000  1
  Sn  Sn35  1  0.97841064  0.91364258  0.59375000  1
  Sr  Sr36  1  0.30402312  0.21609238  0.34375001  1
  Sr  Sr37  1  0.80402312  0.21609238  0.34375001  1
  Sr  Sr38  1  0.19597678  0.78390721  0.40625000  1
  Sr  Sr39  1  0.69597678  0.78390721  0.40625000  1
  Sr  Sr40  1  0.30402312  0.21609238  0.46875001  1
  Sr  Sr41  1  0.80402312  0.21609238  0.46875001  1
  Sr  Sr42  1  0.19597678  0.78390721  0.53125000  1
  Sr  Sr43  1  0.69597678  0.78390721  0.53125000  1
  Sr  Sr44  1  0.30402312  0.21609238  0.59375001  1
  Sr  Sr45  1  0.80402312  0.21609238  0.59375001  1
  Sr  Sr46  1  0.19457429  0.77798761  0.65478978  1
  Sr  Sr47  1  0.69457518  0.77798663  0.65478961  1
