# generated using pymatgen
data_Hf5CuSn3
_symmetry_space_group_name_H-M   'P 1'
_cell_length_a   14.98046360
_cell_length_b   10.45197174
_cell_length_c   52.81622313
_cell_angle_alpha   55.84245253
_cell_angle_beta   89.99997334
_cell_angle_gamma   44.22275489
_symmetry_Int_Tables_number   1
_chemical_formula_structural   Hf5CuSn3
_chemical_formula_sum   'Hf30 Cu6 Sn18'
_cell_volume   3421.58148361
_cell_formula_units_Z   6
loop_
 _symmetry_equiv_pos_site_id
 _symmetry_equiv_pos_as_xyz
  1  'x, y, z'
loop_
 _atom_site_type_symbol
 _atom_site_label
 _atom_site_symmetry_multiplicity
 _atom_site_fract_x
 _atom_site_fract_y
 _atom_site_fract_z
 _atom_site_occupancy
  Hf  Hf0  1  0.33333330  1.00000000  0.36111111  1
  Hf  Hf1  1  0.66666671  0.99999995  0.41666667  1
  Hf  Hf2  1  0.66666667  0.99999998  0.36111111  1
  Hf  Hf3  1  0.33333329  0.00000005  0.41666666  1
  Hf  Hf4  1  0.73660882  0.26339120  0.35962315  1
  Hf  Hf5  1  0.99999998  0.73660885  0.36259906  1
  Hf  Hf6  1  0.73660889  0.52678217  0.38591315  1
  Hf  Hf7  1  0.26339110  0.47321783  0.33630908  1
  Hf  Hf8  1  0.00000002  0.26339119  0.35962315  1
  Hf  Hf9  1  0.26339116  0.73660887  0.36259906  1
  Hf  Hf10  1  0.33333330  1.00000000  0.47222222  1
  Hf  Hf11  1  0.66666671  0.99999995  0.52777778  1
  Hf  Hf12  1  0.66666667  0.99999998  0.47222222  1
  Hf  Hf13  1  0.33333329  0.00000005  0.52777777  1
  Hf  Hf14  1  0.73660882  0.26339120  0.47073426  1
  Hf  Hf15  1  0.99999998  0.73660885  0.47371018  1
  Hf  Hf16  1  0.73660889  0.52678217  0.49702426  1
  Hf  Hf17  1  0.26339110  0.47321783  0.44742019  1
  Hf  Hf18  1  0.00000002  0.26339119  0.47073426  1
  Hf  Hf19  1  0.26339116  0.73660887  0.47371018  1
  Hf  Hf20  1  0.33333330  1.00000000  0.58333334  1
  Hf  Hf21  1  0.64452259  0.02795888  0.63740073  1
  Hf  Hf22  1  0.66666667  0.99999998  0.58333333  1
  Hf  Hf23  1  0.32727709  0.02789959  0.63736869  1
  Hf  Hf24  1  0.73660882  0.26339120  0.58184538  1
  Hf  Hf25  1  0.99999998  0.73660885  0.58482129  1
  Hf  Hf26  1  0.73606669  0.52762210  0.60444134  1
  Hf  Hf27  1  0.26339110  0.47321783  0.55853130  1
  Hf  Hf28  1  0.00000002  0.26339119  0.58184537  1
  Hf  Hf29  1  0.26339116  0.73660887  0.58482129  1
  Cu  Cu30  1  0.00000001  0.99999999  0.36111112  1
  Cu  Cu31  1  0.00000003  0.99999999  0.41666666  1
  Cu  Cu32  1  0.00000001  0.99999999  0.47222223  1
  Cu  Cu33  1  0.00000003  0.99999999  0.52777777  1
  Cu  Cu34  1  0.00000001  0.99999999  0.58333334  1
  Cu  Cu35  1  0.03409726  0.93180049  0.64029714  1
  Sn  Sn36  1  0.38719389  0.61280621  0.43191041  1
  Sn  Sn37  1  0.00000004  0.38719388  0.40142291  1
  Sn  Sn38  1  0.38719391  0.22561214  0.41937643  1
  Sn  Sn39  1  0.61280607  0.77438787  0.41395690  1
  Sn  Sn40  1  0.00000006  0.61280591  0.43191044  1
  Sn  Sn41  1  0.61280605  0.38719393  0.40142291  1
  Sn  Sn42  1  0.38719389  0.61280621  0.54302152  1
  Sn  Sn43  1  0.00000004  0.38719388  0.51253403  1
  Sn  Sn44  1  0.38719391  0.22561214  0.53048755  1
  Sn  Sn45  1  0.61280607  0.77438787  0.52506801  1
  Sn  Sn46  1  0.00000006  0.61280591  0.54302155  1
  Sn  Sn47  1  0.61280605  0.38719393  0.51253402  1
  Sn  Sn48  1  0.38556672  0.63272105  0.65406345  1
  Sn  Sn49  1  0.00716453  0.37316230  0.62553463  1
  Sn  Sn50  1  0.38539069  0.22917297  0.64379420  1
  Sn  Sn51  1  0.62501541  0.74993761  0.63754575  1
  Sn  Sn52  1  0.98123089  0.63318352  0.65406285  1
  Sn  Sn53  1  0.61959069  0.37351069  0.62547751  1
