# generated using pymatgen
data_SrCuSn2
_symmetry_space_group_name_H-M   'P 1'
_cell_length_a   9.29372238
_cell_length_b   10.21982162
_cell_length_c   36.63298701
_cell_angle_alpha   92.45700778
_cell_angle_beta   89.99999852
_cell_angle_gamma   90.00000175
_symmetry_Int_Tables_number   1
_chemical_formula_structural   SrCuSn2
_chemical_formula_sum   'Sr12 Cu12 Sn24'
_cell_volume   3476.20915888
_cell_formula_units_Z   12
loop_
 _symmetry_equiv_pos_site_id
 _symmetry_equiv_pos_as_xyz
  1  'x, y, z'
loop_
 _atom_site_type_symbol
 _atom_site_label
 _atom_site_symmetry_multiplicity
 _atom_site_fract_x
 _atom_site_fract_y
 _atom_site_fract_z
 _atom_site_occupancy
  Cu  Cu0  1  0.12500000  0.76584276  0.41561048  1
  Cu  Cu1  1  0.62500000  0.76584276  0.41561048  1
  Cu  Cu2  1  0.37499999  0.98415688  0.33438954  1
  Cu  Cu3  1  0.87499999  0.98415688  0.33438954  1
  Cu  Cu4  1  0.12500000  0.89084276  0.54061048  1
  Cu  Cu5  1  0.62500000  0.89084276  0.54061048  1
  Cu  Cu6  1  0.37499999  0.10915688  0.45938954  1
  Cu  Cu7  1  0.87499999  0.10915688  0.45938954  1
  Cu  Cu8  1  0.12500002  0.97364209  0.65793893  1
  Cu  Cu9  1  0.62499999  0.97364283  0.65793905  1
  Cu  Cu10  1  0.37499999  0.23415688  0.58438954  1
  Cu  Cu11  1  0.87499999  0.23415688  0.58438954  1
  Sn  Sn12  1  0.37500000  0.90569583  0.40628695  1
  Sn  Sn13  1  0.87500000  0.90569583  0.40628695  1
  Sn  Sn14  1  0.37499998  0.23153994  0.31789734  1
  Sn  Sn15  1  0.87499998  0.23153994  0.31789734  1
  Sn  Sn16  1  0.12499999  0.84430413  0.34371306  1
  Sn  Sn17  1  0.62499999  0.84430413  0.34371306  1
  Sn  Sn18  1  0.12500002  0.51846008  0.43210266  1
  Sn  Sn19  1  0.62500002  0.51846008  0.43210266  1
  Sn  Sn20  1  0.37500000  0.03069583  0.53128695  1
  Sn  Sn21  1  0.87500000  0.03069583  0.53128695  1
  Sn  Sn22  1  0.37499998  0.35653994  0.44289734  1
  Sn  Sn23  1  0.87499998  0.35653994  0.44289734  1
  Sn  Sn24  1  0.12499999  0.96930413  0.46871306  1
  Sn  Sn25  1  0.62499999  0.96930413  0.46871306  1
  Sn  Sn26  1  0.12500002  0.64346008  0.55710266  1
  Sn  Sn27  1  0.62500002  0.64346008  0.55710266  1
  Sn  Sn28  1  0.37500017  0.13849337  0.65598034  1
  Sn  Sn29  1  0.87499981  0.13849329  0.65598038  1
  Sn  Sn30  1  0.37499998  0.48153994  0.56789734  1
  Sn  Sn31  1  0.87499998  0.48153994  0.56789734  1
  Sn  Sn32  1  0.12499999  0.09430413  0.59371306  1
  Sn  Sn33  1  0.62499999  0.09430413  0.59371306  1
  Sn  Sn34  1  0.12500143  0.72168492  0.67075578  1
  Sn  Sn35  1  0.62499853  0.72168686  0.67075625  1
  Sr  Sr36  1  0.12500002  0.17241340  0.38850578  1
  Sr  Sr37  1  0.62500002  0.17241340  0.38850578  1
  Sr  Sr38  1  0.37499999  0.57758699  0.36149419  1
  Sr  Sr39  1  0.87499999  0.57758699  0.36149419  1
  Sr  Sr40  1  0.12500002  0.29741340  0.51350578  1
  Sr  Sr41  1  0.62500002  0.29741340  0.51350578  1
  Sr  Sr42  1  0.37499999  0.70258699  0.48649419  1
  Sr  Sr43  1  0.87499999  0.70258699  0.48649419  1
  Sr  Sr44  1  0.12499988  0.40261437  0.63961950  1
  Sr  Sr45  1  0.62500006  0.40261524  0.63961951  1
  Sr  Sr46  1  0.37499999  0.82758699  0.61149419  1
  Sr  Sr47  1  0.87499999  0.82758699  0.61149419  1
