# generated using pymatgen
data_BaCuBi
_symmetry_space_group_name_H-M   'P 1'
_cell_length_a   9.68453418
_cell_length_b   9.76992813
_cell_length_c   38.73809428
_cell_angle_alpha   89.99989497
_cell_angle_beta   119.99998456
_cell_angle_gamma   89.99999487
_symmetry_Int_Tables_number   1
_chemical_formula_structural   BaCuBi
_chemical_formula_sum   'Ba12 Cu12 Bi12'
_cell_volume   3174.23485651
_cell_formula_units_Z   12
loop_
 _symmetry_equiv_pos_site_id
 _symmetry_equiv_pos_as_xyz
  1  'x, y, z'
loop_
 _atom_site_type_symbol
 _atom_site_label
 _atom_site_symmetry_multiplicity
 _atom_site_fract_x
 _atom_site_fract_y
 _atom_site_fract_z
 _atom_site_occupancy
  Ba  Ba0  1  0.49999988  0.99999987  0.37499999  1
  Ba  Ba1  1  0.99999988  0.99999987  0.37499999  1
  Ba  Ba2  1  0.00000009  0.49999996  0.37500001  1
  Ba  Ba3  1  0.50000009  0.49999996  0.37500001  1
  Ba  Ba4  1  0.49999988  0.99999987  0.49999999  1
  Ba  Ba5  1  0.99999988  0.99999987  0.49999999  1
  Ba  Ba6  1  0.00000009  0.49999996  0.50000001  1
  Ba  Ba7  1  0.50000009  0.49999996  0.50000001  1
  Ba  Ba8  1  0.50846344  0.00712038  0.62923914  1
  Ba  Ba9  1  0.00846338  0.00712065  0.62923923  1
  Ba  Ba10  1  0.00846281  0.49287867  0.62923914  1
  Ba  Ba11  1  0.50846365  0.49287930  0.62923916  1
  Cu  Cu12  1  0.33333325  0.74999982  0.41666664  1
  Cu  Cu13  1  0.83333325  0.74999982  0.41666664  1
  Cu  Cu14  1  0.16666678  0.25000021  0.33333336  1
  Cu  Cu15  1  0.66666678  0.25000021  0.33333336  1
  Cu  Cu16  1  0.33333325  0.74999982  0.54166664  1
  Cu  Cu17  1  0.83333325  0.74999982  0.54166664  1
  Cu  Cu18  1  0.16666678  0.25000021  0.45833336  1
  Cu  Cu19  1  0.66666678  0.25000021  0.45833336  1
  Cu  Cu20  1  0.32520032  0.74999988  0.66261791  1
  Cu  Cu21  1  0.82520062  0.74999988  0.66261797  1
  Cu  Cu22  1  0.16666678  0.25000021  0.58333336  1
  Cu  Cu23  1  0.66666678  0.25000021  0.58333336  1
  Bi  Bi24  1  0.16666663  0.74999985  0.33333333  1
  Bi  Bi25  1  0.66666663  0.74999985  0.33333333  1
  Bi  Bi26  1  0.33333337  0.25000029  0.41666668  1
  Bi  Bi27  1  0.83333337  0.25000029  0.41666668  1
  Bi  Bi28  1  0.16666663  0.74999985  0.45833333  1
  Bi  Bi29  1  0.66666663  0.74999985  0.45833333  1
  Bi  Bi30  1  0.33333337  0.25000029  0.54166668  1
  Bi  Bi31  1  0.83333337  0.25000029  0.54166668  1
  Bi  Bi32  1  0.16666663  0.74999985  0.58333333  1
  Bi  Bi33  1  0.66666663  0.74999985  0.58333333  1
  Bi  Bi34  1  0.32612418  0.24999979  0.66307752  1
  Bi  Bi35  1  0.82612426  0.24999960  0.66307760  1
