# generated using pymatgen
data_MgAl2Cu
_symmetry_space_group_name_H-M   'P 1'
_cell_length_a   10.21203544
_cell_length_b   14.40815595
_cell_length_c   33.44293738
_cell_angle_alpha   89.99999944
_cell_angle_beta   91.53199465
_cell_angle_gamma   89.99999469
_symmetry_Int_Tables_number   1
_chemical_formula_structural   MgAl2Cu
_chemical_formula_sum   'Mg24 Al48 Cu24'
_cell_volume   4918.92118162
_cell_formula_units_Z   24
loop_
 _symmetry_equiv_pos_site_id
 _symmetry_equiv_pos_as_xyz
  1  'x, y, z'
loop_
 _atom_site_type_symbol
 _atom_site_label
 _atom_site_symmetry_multiplicity
 _atom_site_fract_x
 _atom_site_fract_y
 _atom_site_fract_z
 _atom_site_occupancy
  Al  Al0  1  0.42184583  0.27741511  0.37708722  1
  Al  Al1  1  0.42184583  0.77741511  0.37708722  1
  Al  Al2  1  0.92184583  0.27741511  0.37708722  1
  Al  Al3  1  0.92184583  0.77741511  0.37708722  1
  Al  Al4  1  0.42184584  0.47258488  0.37708722  1
  Al  Al5  1  0.42184584  0.97258488  0.37708722  1
  Al  Al6  1  0.92184584  0.47258488  0.37708722  1
  Al  Al7  1  0.92184584  0.97258488  0.37708722  1
  Al  Al8  1  0.16148754  0.22258388  0.34513500  1
  Al  Al9  1  0.16148754  0.72258388  0.34513500  1
  Al  Al10  1  0.66148754  0.22258388  0.34513500  1
  Al  Al11  1  0.66148754  0.72258388  0.34513500  1
  Al  Al12  1  0.16148753  0.02741612  0.34513499  1
  Al  Al13  1  0.16148753  0.52741612  0.34513499  1
  Al  Al14  1  0.66148753  0.02741612  0.34513499  1
  Al  Al15  1  0.66148753  0.52741612  0.34513499  1
  Al  Al16  1  0.08851250  0.27741511  0.48819833  1
  Al  Al17  1  0.08851250  0.77741511  0.48819833  1
  Al  Al18  1  0.58851250  0.27741511  0.48819833  1
  Al  Al19  1  0.58851250  0.77741511  0.48819833  1
  Al  Al20  1  0.08851251  0.47258488  0.48819833  1
  Al  Al21  1  0.08851251  0.97258488  0.48819833  1
  Al  Al22  1  0.58851251  0.47258488  0.48819833  1
  Al  Al23  1  0.58851251  0.97258488  0.48819833  1
  Al  Al24  1  0.32815420  0.22258388  0.45624611  1
  Al  Al25  1  0.32815420  0.72258388  0.45624611  1
  Al  Al26  1  0.82815420  0.22258388  0.45624611  1
  Al  Al27  1  0.82815420  0.72258388  0.45624611  1
  Al  Al28  1  0.32815420  0.02741612  0.45624611  1
  Al  Al29  1  0.32815420  0.52741612  0.45624611  1
  Al  Al30  1  0.82815420  0.02741612  0.45624611  1
  Al  Al31  1  0.82815420  0.52741612  0.45624611  1
  Al  Al32  1  0.25517917  0.27741511  0.59930944  1
  Al  Al33  1  0.25517917  0.77741511  0.59930944  1
  Al  Al34  1  0.75517917  0.27741511  0.59930944  1
  Al  Al35  1  0.75517917  0.77741511  0.59930944  1
  Al  Al36  1  0.25517918  0.47258488  0.59930944  1
  Al  Al37  1  0.25517918  0.97258488  0.59930944  1
  Al  Al38  1  0.75517918  0.47258488  0.59930944  1
  Al  Al39  1  0.75517918  0.97258488  0.59930944  1
  Al  Al40  1  0.49482087  0.22258388  0.56735722  1
  Al  Al41  1  0.49482087  0.72258388  0.56735722  1
  Al  Al42  1  0.99482087  0.22258388  0.56735722  1
  Al  Al43  1  0.99482087  0.72258388  0.56735722  1
  Al  Al44  1  0.49482087  0.02741612  0.56735722  1
  Al  Al45  1  0.49482087  0.52741612  0.56735722  1
  Al  Al46  1  0.99482087  0.02741612  0.56735722  1
  Al  Al47  1  0.99482087  0.52741612  0.56735722  1
  Cu  Cu48  1  0.44126042  0.37500004  0.44116528  1
  Cu  Cu49  1  0.44126042  0.87500004  0.44116528  1
  Cu  Cu50  1  0.94126042  0.37500004  0.44116528  1
  Cu  Cu51  1  0.94126042  0.87500004  0.44116528  1
  Cu  Cu52  1  0.30873958  0.12499996  0.39216805  1
  Cu  Cu53  1  0.30873958  0.62499996  0.39216805  1
  Cu  Cu54  1  0.80873958  0.12499996  0.39216805  1
  Cu  Cu55  1  0.80873958  0.62499996  0.39216805  1
  Cu  Cu56  1  0.10792708  0.37500004  0.55227639  1
  Cu  Cu57  1  0.10792708  0.87500004  0.55227639  1
  Cu  Cu58  1  0.60792708  0.37500004  0.55227639  1
  Cu  Cu59  1  0.60792708  0.87500004  0.55227639  1
  Cu  Cu60  1  0.47540624  0.12499996  0.50327916  1
  Cu  Cu61  1  0.47540624  0.62499996  0.50327916  1
  Cu  Cu62  1  0.97540624  0.12499996  0.50327916  1
  Cu  Cu63  1  0.97540624  0.62499996  0.50327916  1
  Cu  Cu64  1  0.26630106  0.37499997  0.65950695  1
  Cu  Cu65  1  0.26630109  0.87500001  0.65950699  1
  Cu  Cu66  1  0.76630117  0.37499997  0.65950693  1
  Cu  Cu67  1  0.76630115  0.87500001  0.65950697  1
  Cu  Cu68  1  0.13907132  0.12500005  0.61394502  1
  Cu  Cu69  1  0.13907174  0.62500007  0.61394508  1
  Cu  Cu70  1  0.63907106  0.12500005  0.61394499  1
  Cu  Cu71  1  0.63907174  0.62500008  0.61394506  1
  Mg  Mg72  1  0.17903046  0.37500000  0.40946260  1
  Mg  Mg73  1  0.17903046  0.87500000  0.40946260  1
  Mg  Mg74  1  0.67903046  0.37500000  0.40946260  1
  Mg  Mg75  1  0.67903046  0.87500000  0.40946260  1
  Mg  Mg76  1  0.07096946  0.12500000  0.42387074  1
  Mg  Mg77  1  0.07096946  0.62500000  0.42387074  1
  Mg  Mg78  1  0.57096946  0.12500000  0.42387074  1
  Mg  Mg79  1  0.57096946  0.62500000  0.42387074  1
  Mg  Mg80  1  0.34569713  0.37500000  0.52057372  1
  Mg  Mg81  1  0.34569713  0.87500000  0.52057372  1
  Mg  Mg82  1  0.84569713  0.37500000  0.52057372  1
  Mg  Mg83  1  0.84569713  0.87500000  0.52057372  1
  Mg  Mg84  1  0.23763613  0.12500000  0.53498185  1
  Mg  Mg85  1  0.23763613  0.62500000  0.53498185  1
  Mg  Mg86  1  0.73763613  0.12500000  0.53498185  1
  Mg  Mg87  1  0.73763613  0.62500000  0.53498185  1
  Mg  Mg88  1  0.01229048  0.37500000  0.63116728  1
  Mg  Mg89  1  0.01229041  0.87500001  0.63116728  1
  Mg  Mg90  1  0.51229046  0.37500001  0.63116726  1
  Mg  Mg91  1  0.51229048  0.87500001  0.63116727  1
  Mg  Mg92  1  0.39111220  0.12499999  0.64047022  1
  Mg  Mg93  1  0.39111176  0.62499999  0.64047022  1
  Mg  Mg94  1  0.89111221  0.12499999  0.64047024  1
  Mg  Mg95  1  0.89111175  0.62499999  0.64047021  1
