# generated using pymatgen
data_Zn2CuAu
_symmetry_space_group_name_H-M   'P 1'
_cell_length_a   8.83981555
_cell_length_b   8.83981373
_cell_length_c   32.47954954
_cell_angle_alpha   90.00000570
_cell_angle_beta   89.99999961
_cell_angle_gamma   119.99998785
_symmetry_Int_Tables_number   1
_chemical_formula_structural   Zn2CuAu
_chemical_formula_sum   'Zn24 Cu12 Au12'
_cell_volume   2197.99651292
_cell_formula_units_Z   12
loop_
 _symmetry_equiv_pos_site_id
 _symmetry_equiv_pos_as_xyz
  1  'x, y, z'
loop_
 _atom_site_type_symbol
 _atom_site_label
 _atom_site_symmetry_multiplicity
 _atom_site_fract_x
 _atom_site_fract_y
 _atom_site_fract_z
 _atom_site_occupancy
  Au  Au0  1  0.29166634  0.08333354  0.61099568  1
  Au  Au1  1  0.29166621  0.58333293  0.61099567  1
  Au  Au2  1  0.79166663  0.08333355  0.61099569  1
  Au  Au3  1  0.79166676  0.58333372  0.61099568  1
  Au  Au4  1  0.45833337  0.41666665  0.49097864  1
  Au  Au5  1  0.45833337  0.91666665  0.49097864  1
  Au  Au6  1  0.95833337  0.41666665  0.49097864  1
  Au  Au7  1  0.95833337  0.91666665  0.49097864  1
  Au  Au8  1  0.12500014  0.24999998  0.37986753  1
  Au  Au9  1  0.12500014  0.74999998  0.37986753  1
  Au  Au10  1  0.62500014  0.24999998  0.37986753  1
  Au  Au11  1  0.62500014  0.74999998  0.37986753  1
  Cu  Cu12  1  0.45833360  0.41666629  0.64863143  1
  Cu  Cu13  1  0.45833358  0.91666638  0.64863154  1
  Cu  Cu14  1  0.95833360  0.41666647  0.64863140  1
  Cu  Cu15  1  0.95833352  0.91666593  0.64863141  1
  Cu  Cu16  1  0.12500014  0.25000001  0.54653419  1
  Cu  Cu17  1  0.12500014  0.75000001  0.54653419  1
  Cu  Cu18  1  0.62500014  0.25000001  0.54653419  1
  Cu  Cu19  1  0.62500014  0.75000001  0.54653419  1
  Cu  Cu20  1  0.29166690  0.08333334  0.43542308  1
  Cu  Cu21  1  0.29166690  0.58333334  0.43542308  1
  Cu  Cu22  1  0.79166690  0.08333334  0.43542308  1
  Cu  Cu23  1  0.79166690  0.58333334  0.43542308  1
  Zn  Zn24  1  0.45833339  0.41666668  0.57431197  1
  Zn  Zn25  1  0.45833339  0.91666668  0.57431197  1
  Zn  Zn26  1  0.95833339  0.41666668  0.57431197  1
  Zn  Zn27  1  0.95833339  0.91666668  0.57431197  1
  Zn  Zn28  1  0.12500072  0.24999971  0.63465364  1
  Zn  Zn29  1  0.12499976  0.74999913  0.63465363  1
  Zn  Zn30  1  0.62500069  0.24999977  0.63465365  1
  Zn  Zn31  1  0.62500086  0.74999916  0.63465365  1
  Zn  Zn32  1  0.12500015  0.25000001  0.46320086  1
  Zn  Zn33  1  0.12500015  0.75000001  0.46320086  1
  Zn  Zn34  1  0.62500015  0.25000001  0.46320086  1
  Zn  Zn35  1  0.62500015  0.75000001  0.46320086  1
  Zn  Zn36  1  0.29166691  0.08333333  0.51875642  1
  Zn  Zn37  1  0.29166691  0.58333333  0.51875642  1
  Zn  Zn38  1  0.79166691  0.08333333  0.51875642  1
  Zn  Zn39  1  0.79166691  0.58333333  0.51875642  1
  Zn  Zn40  1  0.29166691  0.08333335  0.35208975  1
  Zn  Zn41  1  0.29166691  0.58333335  0.35208975  1
  Zn  Zn42  1  0.79166691  0.08333335  0.35208975  1
  Zn  Zn43  1  0.79166691  0.58333335  0.35208975  1
  Zn  Zn44  1  0.45833338  0.41666666  0.40764531  1
  Zn  Zn45  1  0.45833338  0.91666666  0.40764531  1
  Zn  Zn46  1  0.95833338  0.41666666  0.40764531  1
  Zn  Zn47  1  0.95833338  0.91666666  0.40764531  1
