# generated using pymatgen
data_MgAl2Cu
_symmetry_space_group_name_H-M   'P 1'
_cell_length_a   8.09108943
_cell_length_b   10.21203543
_cell_length_c   36.02038989
_cell_angle_alpha   90.00000527
_cell_angle_beta   89.99999724
_cell_angle_gamma   113.33800358
_symmetry_Int_Tables_number   1
_chemical_formula_structural   MgAl2Cu
_chemical_formula_sum   'Mg16 Al32 Cu16'
_cell_volume   2732.73399009
_cell_formula_units_Z   16
loop_
 _symmetry_equiv_pos_site_id
 _symmetry_equiv_pos_as_xyz
  1  'x, y, z'
loop_
 _atom_site_type_symbol
 _atom_site_label
 _atom_site_symmetry_multiplicity
 _atom_site_fract_x
 _atom_site_fract_y
 _atom_site_fract_z
 _atom_site_occupancy
  Al  Al0  1  0.32078661  0.14120532  0.63240738  1
  Al  Al1  1  0.32078669  0.64120542  0.63240740  1
  Al  Al2  1  0.82078686  0.14120520  0.63240738  1
  Al  Al3  1  0.82078689  0.64120535  0.63240741  1
  Al  Al4  1  0.32189248  0.14378499  0.50805995  1
  Al  Al5  1  0.32189248  0.64378499  0.50805995  1
  Al  Al6  1  0.82189248  0.14378499  0.50805995  1
  Al  Al7  1  0.82189248  0.64378499  0.50805995  1
  Al  Al8  1  0.17810746  0.35621496  0.60805954  1
  Al  Al9  1  0.17810746  0.85621496  0.60805954  1
  Al  Al10  1  0.67810746  0.35621496  0.60805954  1
  Al  Al11  1  0.67810746  0.85621496  0.60805954  1
  Al  Al12  1  0.17810748  0.35621496  0.52999244  1
  Al  Al13  1  0.17810748  0.85621496  0.52999244  1
  Al  Al14  1  0.67810748  0.35621496  0.52999244  1
  Al  Al15  1  0.67810748  0.85621496  0.52999244  1
  Al  Al16  1  0.32189249  0.14378500  0.42999204  1
  Al  Al17  1  0.32189249  0.64378500  0.42999204  1
  Al  Al18  1  0.82189249  0.14378500  0.42999204  1
  Al  Al19  1  0.82189249  0.64378500  0.42999204  1
  Al  Al20  1  0.32189248  0.14378499  0.30805995  1
  Al  Al21  1  0.32189248  0.64378499  0.30805995  1
  Al  Al22  1  0.82189248  0.14378499  0.30805995  1
  Al  Al23  1  0.82189248  0.64378499  0.30805995  1
  Al  Al24  1  0.17810746  0.35621496  0.40805954  1
  Al  Al25  1  0.17810746  0.85621496  0.40805954  1
  Al  Al26  1  0.67810746  0.35621496  0.40805954  1
  Al  Al27  1  0.67810746  0.85621496  0.40805954  1
  Al  Al28  1  0.17810748  0.35621496  0.32999244  1
  Al  Al29  1  0.17810748  0.85621496  0.32999244  1
  Al  Al30  1  0.67810748  0.35621496  0.32999244  1
  Al  Al31  1  0.67810748  0.85621496  0.32999244  1
  Cu  Cu32  1  0.10902236  0.21784065  0.66636422  1
  Cu  Cu33  1  0.10902233  0.71784065  0.66636424  1
  Cu  Cu34  1  0.60902224  0.21784047  0.66636417  1
  Cu  Cu35  1  0.60902232  0.71784064  0.66636421  1
  Cu  Cu36  1  0.38975625  0.27951250  0.56902598  1
  Cu  Cu37  1  0.38975625  0.77951250  0.56902598  1
  Cu  Cu38  1  0.88975625  0.27951250  0.56902598  1
  Cu  Cu39  1  0.88975625  0.77951250  0.56902598  1
  Cu  Cu40  1  0.11024372  0.22048751  0.46902601  1
  Cu  Cu41  1  0.11024372  0.72048751  0.46902601  1
  Cu  Cu42  1  0.61024372  0.22048751  0.46902601  1
  Cu  Cu43  1  0.61024372  0.72048751  0.46902601  1
  Cu  Cu44  1  0.38975625  0.27951250  0.36902598  1
  Cu  Cu45  1  0.38975625  0.77951250  0.36902598  1
  Cu  Cu46  1  0.88975625  0.27951250  0.36902598  1
  Cu  Cu47  1  0.88975625  0.77951250  0.36902598  1
  Mg  Mg48  1  0.46518679  0.43041256  0.66506841  1
  Mg  Mg49  1  0.46518673  0.93041250  0.66506842  1
  Mg  Mg50  1  0.96518692  0.43041260  0.66506842  1
  Mg  Mg51  1  0.96518692  0.93041254  0.66506841  1
  Mg  Mg52  1  0.03241830  0.06483664  0.56902599  1
  Mg  Mg53  1  0.03241830  0.56483664  0.56902599  1
  Mg  Mg54  1  0.53241830  0.06483664  0.56902599  1
  Mg  Mg55  1  0.53241830  0.56483664  0.56902599  1
  Mg  Mg56  1  0.46758172  0.43516345  0.46902600  1
  Mg  Mg57  1  0.46758172  0.93516345  0.46902600  1
  Mg  Mg58  1  0.96758172  0.43516345  0.46902600  1
  Mg  Mg59  1  0.96758172  0.93516345  0.46902600  1
  Mg  Mg60  1  0.03241830  0.06483664  0.36902599  1
  Mg  Mg61  1  0.03241830  0.56483664  0.36902599  1
  Mg  Mg62  1  0.53241830  0.06483664  0.36902599  1
  Mg  Mg63  1  0.53241830  0.56483664  0.36902599  1
