# generated using pymatgen
data_Li2CuSn
_symmetry_space_group_name_H-M   'P 1'
_cell_length_a   9.00191189
_cell_length_b   9.00191425
_cell_length_c   33.07514117
_cell_angle_alpha   90.00002349
_cell_angle_beta   89.99998555
_cell_angle_gamma   119.99998723
_symmetry_Int_Tables_number   1
_chemical_formula_structural   Li2CuSn
_chemical_formula_sum   'Li24 Cu12 Sn12'
_cell_volume   2321.14367662
_cell_formula_units_Z   12
loop_
 _symmetry_equiv_pos_site_id
 _symmetry_equiv_pos_as_xyz
  1  'x, y, z'
loop_
 _atom_site_type_symbol
 _atom_site_label
 _atom_site_symmetry_multiplicity
 _atom_site_fract_x
 _atom_site_fract_y
 _atom_site_fract_z
 _atom_site_occupancy
  Cu  Cu0  1  0.29166686  0.20833208  0.64423150  1
  Cu  Cu1  1  0.29166914  0.70833356  0.64423220  1
  Cu  Cu2  1  0.79167122  0.20833319  0.64423187  1
  Cu  Cu3  1  0.79166957  0.70833250  0.64423175  1
  Cu  Cu4  1  0.12500001  0.37500002  0.54166667  1
  Cu  Cu5  1  0.12500001  0.87500002  0.54166667  1
  Cu  Cu6  1  0.62500001  0.37500002  0.54166667  1
  Cu  Cu7  1  0.62500001  0.87500002  0.54166667  1
  Cu  Cu8  1  0.45833335  0.04166668  0.43055555  1
  Cu  Cu9  1  0.45833335  0.54166668  0.43055555  1
  Cu  Cu10  1  0.95833335  0.04166668  0.43055555  1
  Cu  Cu11  1  0.95833335  0.54166668  0.43055555  1
  Li  Li12  1  0.29166665  0.20833334  0.56944445  1
  Li  Li13  1  0.29166665  0.70833334  0.56944445  1
  Li  Li14  1  0.79166665  0.20833334  0.56944445  1
  Li  Li15  1  0.79166665  0.70833334  0.56944445  1
  Li  Li16  1  0.45833508  0.04166543  0.60217749  1
  Li  Li17  1  0.45833688  0.54166661  0.60217765  1
  Li  Li18  1  0.95833543  0.04166612  0.60217800  1
  Li  Li19  1  0.95833414  0.54166597  0.60217735  1
  Li  Li20  1  0.12499999  0.37500001  0.45833334  1
  Li  Li21  1  0.12499999  0.87500001  0.45833334  1
  Li  Li22  1  0.62499999  0.37500001  0.45833334  1
  Li  Li23  1  0.62499999  0.87500001  0.45833334  1
  Li  Li24  1  0.29166666  0.20833331  0.48611111  1
  Li  Li25  1  0.29166666  0.70833331  0.48611111  1
  Li  Li26  1  0.79166666  0.20833331  0.48611111  1
  Li  Li27  1  0.79166666  0.70833331  0.48611111  1
  Li  Li28  1  0.45833332  0.04166668  0.34722223  1
  Li  Li29  1  0.45833332  0.54166668  0.34722223  1
  Li  Li30  1  0.95833332  0.04166668  0.34722223  1
  Li  Li31  1  0.95833332  0.54166668  0.34722223  1
  Li  Li32  1  0.12500000  0.37499998  0.37500000  1
  Li  Li33  1  0.12500000  0.87499998  0.37500000  1
  Li  Li34  1  0.62500000  0.37499998  0.37500000  1
  Li  Li35  1  0.62500000  0.87499998  0.37500000  1
  Sn  Sn36  1  0.12499349  0.37499673  0.62860622  1
  Sn  Sn37  1  0.12499596  0.87500038  0.62860678  1
  Sn  Sn38  1  0.62500019  0.37500366  0.62860585  1
  Sn  Sn39  1  0.62499826  0.87500193  0.62860682  1
  Sn  Sn40  1  0.45833334  0.04166666  0.51388889  1
  Sn  Sn41  1  0.45833334  0.54166666  0.51388889  1
  Sn  Sn42  1  0.95833334  0.04166666  0.51388889  1
  Sn  Sn43  1  0.95833334  0.54166666  0.51388889  1
  Sn  Sn44  1  0.29166667  0.20833333  0.40277778  1
  Sn  Sn45  1  0.29166667  0.70833333  0.40277778  1
  Sn  Sn46  1  0.79166667  0.20833333  0.40277778  1
  Sn  Sn47  1  0.79166667  0.70833333  0.40277778  1
