# generated using pymatgen
data_Zn2CuAu
_symmetry_space_group_name_H-M   'P 1'
_cell_length_a   8.83981373
_cell_length_b   12.50138749
_cell_length_c   35.35925794
_cell_angle_alpha   89.99998309
_cell_angle_beta   89.99999844
_cell_angle_gamma   90.00000765
_symmetry_Int_Tables_number   1
_chemical_formula_structural   Zn2CuAu
_chemical_formula_sum   'Zn48 Cu24 Au24'
_cell_volume   3907.54935947
_cell_formula_units_Z   24
loop_
 _symmetry_equiv_pos_site_id
 _symmetry_equiv_pos_as_xyz
  1  'x, y, z'
loop_
 _atom_site_type_symbol
 _atom_site_label
 _atom_site_symmetry_multiplicity
 _atom_site_fract_x
 _atom_site_fract_y
 _atom_site_fract_z
 _atom_site_occupancy
  Au  Au0  1  0.12499999  0.00000001  0.59375000  1
  Au  Au1  1  0.12499999  0.50000001  0.59375000  1
  Au  Au2  1  0.62499999  0.00000001  0.59375000  1
  Au  Au3  1  0.62499999  0.50000001  0.59375000  1
  Au  Au4  1  0.37500001  0.24999988  0.65642813  1
  Au  Au5  1  0.37499983  0.75000040  0.65642800  1
  Au  Au6  1  0.87500037  0.24999974  0.65642797  1
  Au  Au7  1  0.87499988  0.75000023  0.65642824  1
  Au  Au8  1  0.12499999  0.00000001  0.46875000  1
  Au  Au9  1  0.12499999  0.50000001  0.46875000  1
  Au  Au10  1  0.62499999  0.00000001  0.46875000  1
  Au  Au11  1  0.62499999  0.50000001  0.46875000  1
  Au  Au12  1  0.37499999  0.25000001  0.53125000  1
  Au  Au13  1  0.37499999  0.75000001  0.53125000  1
  Au  Au14  1  0.87499999  0.25000001  0.53125000  1
  Au  Au15  1  0.87499999  0.75000001  0.53125000  1
  Au  Au16  1  0.12499999  0.00000001  0.34375000  1
  Au  Au17  1  0.12499999  0.50000001  0.34375000  1
  Au  Au18  1  0.62499999  0.00000001  0.34375000  1
  Au  Au19  1  0.62499999  0.50000001  0.34375000  1
  Au  Au20  1  0.37499999  0.25000001  0.40625000  1
  Au  Au21  1  0.37499999  0.75000001  0.40625000  1
  Au  Au22  1  0.87499999  0.25000001  0.40625000  1
  Au  Au23  1  0.87499999  0.75000001  0.40625000  1
  Cu  Cu24  1  0.37499999  0.49999988  0.65348517  1
  Cu  Cu25  1  0.37499990  0.00000011  0.65348522  1
  Cu  Cu26  1  0.87500006  0.50000004  0.65348524  1
  Cu  Cu27  1  0.87499984  0.00000001  0.65348532  1
  Cu  Cu28  1  0.12500000  0.25000000  0.59375000  1
  Cu  Cu29  1  0.12500000  0.75000000  0.59375000  1
  Cu  Cu30  1  0.62500000  0.25000000  0.59375000  1
  Cu  Cu31  1  0.62500000  0.75000000  0.59375000  1
  Cu  Cu32  1  0.37500000  0.49999999  0.53125000  1
  Cu  Cu33  1  0.37500000  0.99999999  0.53125000  1
  Cu  Cu34  1  0.87500000  0.49999999  0.53125000  1
  Cu  Cu35  1  0.87500000  0.99999999  0.53125000  1
  Cu  Cu36  1  0.12500000  0.25000000  0.46875000  1
  Cu  Cu37  1  0.12500000  0.75000000  0.46875000  1
  Cu  Cu38  1  0.62500000  0.25000000  0.46875000  1
  Cu  Cu39  1  0.62500000  0.75000000  0.46875000  1
  Cu  Cu40  1  0.37500000  0.49999999  0.40625000  1
  Cu  Cu41  1  0.37500000  0.99999999  0.40625000  1
  Cu  Cu42  1  0.87500000  0.49999999  0.40625000  1
  Cu  Cu43  1  0.87500000  0.99999999  0.40625000  1
  Cu  Cu44  1  0.12500000  0.25000000  0.34375000  1
  Cu  Cu45  1  0.12500000  0.75000000  0.34375000  1
  Cu  Cu46  1  0.62500000  0.25000000  0.34375000  1
  Cu  Cu47  1  0.62500000  0.75000000  0.34375000  1
  Zn  Zn48  1  0.12499996  0.12305362  0.66033076  1
  Zn  Zn49  1  0.12499983  0.62305398  0.66033077  1
  Zn  Zn50  1  0.62500018  0.12305380  0.66033082  1
  Zn  Zn51  1  0.62499989  0.62305398  0.66033079  1
  Zn  Zn52  1  0.37499999  0.12500006  0.59375000  1
  Zn  Zn53  1  0.37499999  0.62500006  0.59375000  1
  Zn  Zn54  1  0.87499999  0.12500006  0.59375000  1
  Zn  Zn55  1  0.87499999  0.62500006  0.59375000  1
  Zn  Zn56  1  0.37500000  0.37499994  0.59375000  1
  Zn  Zn57  1  0.37500000  0.87499994  0.59375000  1
  Zn  Zn58  1  0.87500000  0.37499994  0.59375000  1
  Zn  Zn59  1  0.87500000  0.87499994  0.59375000  1
  Zn  Zn60  1  0.12500005  0.37694604  0.66033050  1
  Zn  Zn61  1  0.12499968  0.87694635  0.66033056  1
  Zn  Zn62  1  0.62500029  0.37694588  0.66033056  1
  Zn  Zn63  1  0.62500012  0.87694634  0.66033058  1
  Zn  Zn64  1  0.12500002  0.12500006  0.53125000  1
  Zn  Zn65  1  0.12500002  0.62500006  0.53125000  1
  Zn  Zn66  1  0.62500002  0.12500006  0.53125000  1
  Zn  Zn67  1  0.62500002  0.62500006  0.53125000  1
  Zn  Zn68  1  0.37499999  0.12500006  0.46875000  1
  Zn  Zn69  1  0.37499999  0.62500006  0.46875000  1
  Zn  Zn70  1  0.87499999  0.12500006  0.46875000  1
  Zn  Zn71  1  0.87499999  0.62500006  0.46875000  1
  Zn  Zn72  1  0.37500000  0.37499994  0.46875000  1
  Zn  Zn73  1  0.37500000  0.87499994  0.46875000  1
  Zn  Zn74  1  0.87500000  0.37499994  0.46875000  1
  Zn  Zn75  1  0.87500000  0.87499994  0.46875000  1
  Zn  Zn76  1  0.12500001  0.37499994  0.53125000  1
  Zn  Zn77  1  0.12500001  0.87499994  0.53125000  1
  Zn  Zn78  1  0.62500001  0.37499994  0.53125000  1
  Zn  Zn79  1  0.62500001  0.87499994  0.53125000  1
  Zn  Zn80  1  0.12500002  0.12500006  0.40625000  1
  Zn  Zn81  1  0.12500002  0.62500006  0.40625000  1
  Zn  Zn82  1  0.62500002  0.12500006  0.40625000  1
  Zn  Zn83  1  0.62500002  0.62500006  0.40625000  1
  Zn  Zn84  1  0.37499999  0.12500006  0.34375000  1
  Zn  Zn85  1  0.37499999  0.62500006  0.34375000  1
  Zn  Zn86  1  0.87499999  0.12500006  0.34375000  1
  Zn  Zn87  1  0.87499999  0.62500006  0.34375000  1
  Zn  Zn88  1  0.37500000  0.37499994  0.34375000  1
  Zn  Zn89  1  0.37500000  0.87499994  0.34375000  1
  Zn  Zn90  1  0.87500000  0.37499994  0.34375000  1
  Zn  Zn91  1  0.87500000  0.87499994  0.34375000  1
  Zn  Zn92  1  0.12500001  0.37499994  0.40625000  1
  Zn  Zn93  1  0.12500001  0.87499994  0.40625000  1
  Zn  Zn94  1  0.62500001  0.37499994  0.40625000  1
  Zn  Zn95  1  0.62500001  0.87499994  0.40625000  1
