# generated using pymatgen
data_SrCuBi
_symmetry_space_group_name_H-M   'P 1'
_cell_length_a   9.47719905
_cell_length_b   9.12954359
_cell_length_c   37.90885031
_cell_angle_alpha   90.00000358
_cell_angle_beta   120.00011404
_cell_angle_gamma   89.99998702
_symmetry_Int_Tables_number   1
_chemical_formula_structural   SrCuBi
_chemical_formula_sum   'Sr12 Cu12 Bi12'
_cell_volume   2840.53284075
_cell_formula_units_Z   12
loop_
 _symmetry_equiv_pos_site_id
 _symmetry_equiv_pos_as_xyz
  1  'x, y, z'
loop_
 _atom_site_type_symbol
 _atom_site_label
 _atom_site_symmetry_multiplicity
 _atom_site_fract_x
 _atom_site_fract_y
 _atom_site_fract_z
 _atom_site_occupancy
  Sr  Sr0  1  0.00000002  0.50000027  0.37499991  1
  Sr  Sr1  1  0.50000002  0.50000027  0.37499991  1
  Sr  Sr2  1  0.49999953  0.99999965  0.37500023  1
  Sr  Sr3  1  0.99999953  0.99999965  0.37500023  1
  Sr  Sr4  1  0.00000002  0.50000027  0.49999991  1
  Sr  Sr5  1  0.50000002  0.50000027  0.49999991  1
  Sr  Sr6  1  0.49999953  0.99999965  0.50000023  1
  Sr  Sr7  1  0.99999953  0.99999965  0.50000023  1
  Sr  Sr8  1  0.00426847  0.48843281  0.62718166  1
  Sr  Sr9  1  0.50426831  0.48843257  0.62718166  1
  Sr  Sr10  1  0.50426822  0.01156763  0.62718163  1
  Sr  Sr11  1  0.00426839  0.01156744  0.62718163  1
  Cu  Cu12  1  0.33333355  0.74999861  0.41666664  1
  Cu  Cu13  1  0.83333355  0.74999861  0.41666664  1
  Cu  Cu14  1  0.16666672  0.25000133  0.33333325  1
  Cu  Cu15  1  0.66666672  0.25000133  0.33333325  1
  Cu  Cu16  1  0.33333355  0.74999861  0.54166664  1
  Cu  Cu17  1  0.83333355  0.74999861  0.54166664  1
  Cu  Cu18  1  0.16666672  0.25000133  0.45833325  1
  Cu  Cu19  1  0.66666672  0.25000133  0.45833325  1
  Cu  Cu20  1  0.32765422  0.74999882  0.66385733  1
  Cu  Cu21  1  0.82765420  0.74999884  0.66385734  1
  Cu  Cu22  1  0.16666672  0.25000133  0.58333325  1
  Cu  Cu23  1  0.66666672  0.25000133  0.58333325  1
  Bi  Bi24  1  0.33333369  0.25000060  0.41666664  1
  Bi  Bi25  1  0.83333369  0.25000060  0.41666664  1
  Bi  Bi26  1  0.16666650  0.74999953  0.33333332  1
  Bi  Bi27  1  0.66666650  0.74999953  0.33333332  1
  Bi  Bi28  1  0.33333369  0.25000060  0.54166664  1
  Bi  Bi29  1  0.83333369  0.25000060  0.54166664  1
  Bi  Bi30  1  0.16666650  0.74999953  0.45833332  1
  Bi  Bi31  1  0.66666650  0.74999953  0.45833332  1
  Bi  Bi32  1  0.33112618  0.25000021  0.66550140  1
  Bi  Bi33  1  0.83112638  0.25000018  0.66550154  1
  Bi  Bi34  1  0.16666650  0.74999953  0.58333332  1
  Bi  Bi35  1  0.66666650  0.74999953  0.58333332  1
