# generated using pymatgen
data_BaCuSn2
_symmetry_space_group_name_H-M   'P 1'
_cell_length_a   13.70268162
_cell_length_b   10.26594801
_cell_length_c   30.88313037
_cell_angle_alpha   98.07995123
_cell_angle_beta   95.16551306
_cell_angle_gamma   99.96019849
_symmetry_Int_Tables_number   1
_chemical_formula_structural   BaCuSn2
_chemical_formula_sum   'Ba12 Cu12 Sn24'
_cell_volume   4207.18203654
_cell_formula_units_Z   12
loop_
 _symmetry_equiv_pos_site_id
 _symmetry_equiv_pos_as_xyz
  1  'x, y, z'
loop_
 _atom_site_type_symbol
 _atom_site_label
 _atom_site_symmetry_multiplicity
 _atom_site_fract_x
 _atom_site_fract_y
 _atom_site_fract_z
 _atom_site_occupancy
  Ba  Ba0  1  0.07841119  0.83019908  0.64348090  1
  Ba  Ba1  1  0.57841092  0.83019896  0.64348058  1
  Ba  Ba2  1  0.12733949  0.39422486  0.61253668  1
  Ba  Ba3  1  0.62734048  0.39422543  0.61253671  1
  Ba  Ba4  1  0.30052119  0.74568647  0.54438852  1
  Ba  Ba5  1  0.80052119  0.74568647  0.54438852  1
  Ba  Ba6  1  0.35742232  0.28209223  0.48262692  1
  Ba  Ba7  1  0.85742232  0.28209223  0.48262692  1
  Ba  Ba8  1  0.04714329  0.63457536  0.41427851  1
  Ba  Ba9  1  0.54714329  0.63457536  0.41427851  1
  Ba  Ba10  1  0.10404442  0.17098112  0.39246413  1
  Ba  Ba11  1  0.60404442  0.17098112  0.39246413  1
  Cu  Cu12  1  0.33507080  0.94711850  0.62864133  1
  Cu  Cu13  1  0.83507123  0.94711802  0.62864165  1
  Cu  Cu14  1  0.34512242  0.26472306  0.59051550  1
  Cu  Cu15  1  0.84512350  0.26472488  0.59051579  1
  Cu  Cu16  1  0.07236493  0.87989946  0.51676186  1
  Cu  Cu17  1  0.57236493  0.87989946  0.51676186  1
  Cu  Cu18  1  0.08557829  0.14787739  0.51025370  1
  Cu  Cu19  1  0.58557829  0.14787739  0.51025370  1
  Cu  Cu20  1  0.31898703  0.76878835  0.42659907  1
  Cu  Cu21  1  0.81898703  0.76878835  0.42659907  1
  Cu  Cu22  1  0.33220038  0.03676628  0.38014368  1
  Cu  Cu23  1  0.83220038  0.03676628  0.38014368  1
  Sn  Sn24  1  0.38074042  0.51572078  0.58577719  1
  Sn  Sn25  1  0.88074042  0.51572078  0.58577719  1
  Sn  Sn26  1  0.32116793  0.70557495  0.65814636  1
  Sn  Sn27  1  0.82116819  0.70557438  0.65814613  1
  Sn  Sn28  1  0.44043606  0.06929690  0.56298375  1
  Sn  Sn29  1  0.94043606  0.06929690  0.56298375  1
  Sn  Sn30  1  0.19048404  0.06959168  0.58294055  1
  Sn  Sn31  1  0.69048404  0.06959168  0.58294055  1
  Sn  Sn32  1  0.12736252  0.40460967  0.49561440  1
  Sn  Sn33  1  0.62736252  0.40460967  0.49561440  1
  Sn  Sn34  1  0.03058090  0.62316842  0.53140109  1
  Sn  Sn35  1  0.53058090  0.62316842  0.53140109  1
  Sn  Sn36  1  0.46745927  0.95818579  0.48402220  1
  Sn  Sn37  1  0.96745927  0.95818579  0.48402220  1
  Sn  Sn38  1  0.21750725  0.95848057  0.46403178  1
  Sn  Sn39  1  0.71750725  0.95848057  0.46403178  1
  Sn  Sn40  1  0.37398462  0.29349856  0.36550439  1
  Sn  Sn41  1  0.87398462  0.29349856  0.36550439  1
  Sn  Sn42  1  0.27720300  0.51205731  0.44123830  1
  Sn  Sn43  1  0.77720300  0.51205731  0.44123830  1
  Sn  Sn44  1  0.21408137  0.84707468  0.35391219  1
  Sn  Sn45  1  0.71408137  0.84707468  0.35391219  1
  Sn  Sn46  1  0.46412935  0.84736946  0.33392176  1
  Sn  Sn47  1  0.96412935  0.84736946  0.33392176  1
