# generated using pymatgen
data_BaCuSn2
_symmetry_space_group_name_H-M   'P 1'
_cell_length_a   13.70268162
_cell_length_b   10.26594801
_cell_length_c   30.88313037
_cell_angle_alpha   98.07995123
_cell_angle_beta   95.16551306
_cell_angle_gamma   99.96019849
_symmetry_Int_Tables_number   1
_chemical_formula_structural   BaCuSn2
_chemical_formula_sum   'Ba12 Cu12 Sn24'
_cell_volume   4207.18203654
_cell_formula_units_Z   12
loop_
 _symmetry_equiv_pos_site_id
 _symmetry_equiv_pos_as_xyz
  1  'x, y, z'
loop_
 _atom_site_type_symbol
 _atom_site_label
 _atom_site_symmetry_multiplicity
 _atom_site_fract_x
 _atom_site_fract_y
 _atom_site_fract_z
 _atom_site_occupancy
  Ba  Ba0  1  0.23886566  0.77346425  0.57002904  1
  Ba  Ba1  1  0.73886566  0.77346425  0.57002904  1
  Ba  Ba2  1  0.08997485  0.42887576  0.64082983  1
  Ba  Ba3  1  0.58997476  0.42887583  0.64082980  1
  Ba  Ba4  1  0.48548776  0.66235314  0.43991902  1
  Ba  Ba5  1  0.98548776  0.66235314  0.43991902  1
  Ba  Ba6  1  0.29576680  0.30987001  0.54821466  1
  Ba  Ba7  1  0.79576680  0.30987001  0.54821466  1
  Ba  Ba8  1  0.23210986  0.55124203  0.34975623  1
  Ba  Ba9  1  0.73210986  0.55124203  0.34975623  1
  Ba  Ba10  1  0.04238890  0.19875889  0.41810464  1
  Ba  Ba11  1  0.54238890  0.19875889  0.41810464  1
  Cu  Cu12  1  0.48377590  0.89975318  0.61999709  1
  Cu  Cu13  1  0.98377579  0.89975309  0.61999714  1
  Cu  Cu14  1  0.32597292  0.32871752  0.64582889  1
  Cu  Cu15  1  0.82597295  0.32871760  0.64582890  1
  Cu  Cu16  1  0.01070941  0.90767724  0.54240237  1
  Cu  Cu17  1  0.51070941  0.90767724  0.54240237  1
  Cu  Cu18  1  0.02392276  0.17565517  0.53589421  1
  Cu  Cu19  1  0.52392276  0.17565517  0.53589421  1
  Cu  Cu20  1  0.25733151  0.79656613  0.45223958  1
  Cu  Cu21  1  0.75733151  0.79656613  0.45223958  1
  Cu  Cu22  1  0.27054486  0.06454406  0.40578420  1
  Cu  Cu23  1  0.77054486  0.06454406  0.40578420  1
  Sn  Sn24  1  0.37835188  0.60017691  0.63994846  1
  Sn  Sn25  1  0.87835185  0.60017686  0.63994846  1
  Sn  Sn26  1  0.46892537  0.65094620  0.55704160  1
  Sn  Sn27  1  0.96892537  0.65094620  0.55704160  1
  Sn  Sn28  1  0.37878054  0.09707468  0.58862426  1
  Sn  Sn29  1  0.87878054  0.09707468  0.58862426  1
  Sn  Sn30  1  0.13617938  0.09760382  0.60818079  1
  Sn  Sn31  1  0.63617918  0.09760322  0.60818072  1
  Sn  Sn32  1  0.06570699  0.43238745  0.52125491  1
  Sn  Sn33  1  0.56570699  0.43238745  0.52125491  1
  Sn  Sn34  1  0.21554747  0.53983509  0.46687881  1
  Sn  Sn35  1  0.71554747  0.53983509  0.46687881  1
  Sn  Sn36  1  0.40580375  0.98596357  0.50966272  1
  Sn  Sn37  1  0.90580375  0.98596357  0.50966272  1
  Sn  Sn38  1  0.15585173  0.98625835  0.48967229  1
  Sn  Sn39  1  0.65585173  0.98625835  0.48967229  1
  Sn  Sn40  1  0.31232909  0.32127634  0.39114490  1
  Sn  Sn41  1  0.81232909  0.32127634  0.39114490  1
  Sn  Sn42  1  0.46216957  0.42872398  0.33676879  1
  Sn  Sn43  1  0.96216957  0.42872398  0.33676879  1
  Sn  Sn44  1  0.15242585  0.87485245  0.37955270  1
  Sn  Sn45  1  0.65242585  0.87485245  0.37955270  1
  Sn  Sn46  1  0.40247383  0.87514724  0.39950950  1
  Sn  Sn47  1  0.90247383  0.87514724  0.39950950  1
