# generated using pymatgen
data_Y5CuPb3
_symmetry_space_group_name_H-M   'P 1'
_cell_length_a   16.09612281
_cell_length_b   11.51310171
_cell_length_c   61.16677623
_cell_angle_alpha   53.82092644
_cell_angle_beta   89.99999366
_cell_angle_gamma   45.65035984
_symmetry_Int_Tables_number   1
_chemical_formula_structural   Y5CuPb3
_chemical_formula_sum   'Y30 Cu6 Pb18'
_cell_volume   4574.74822760
_cell_formula_units_Z   6
loop_
 _symmetry_equiv_pos_site_id
 _symmetry_equiv_pos_as_xyz
  1  'x, y, z'
loop_
 _atom_site_type_symbol
 _atom_site_label
 _atom_site_symmetry_multiplicity
 _atom_site_fract_x
 _atom_site_fract_y
 _atom_site_fract_z
 _atom_site_occupancy
  Y  Y0  1  0.74715287  0.50569428  0.40677467  1
  Y  Y1  1  0.33333332  1.00000000  0.43518519  1
  Y  Y2  1  0.33333333  0.00000000  0.37962963  1
  Y  Y3  1  0.99999998  0.25284719  0.37931332  1
  Y  Y4  1  0.00000002  0.74715281  0.37994594  1
  Y  Y5  1  0.25284713  0.49430574  0.35248459  1
  Y  Y6  1  0.66666667  0.99999999  0.43518519  1
  Y  Y7  1  0.74715283  0.25284717  0.37931332  1
  Y  Y8  1  0.25284718  0.74715282  0.37994594  1
  Y  Y9  1  0.66666666  0.00000001  0.37962963  1
  Y  Y10  1  0.74715287  0.50569428  0.51788578  1
  Y  Y11  1  0.33333332  1.00000000  0.54629630  1
  Y  Y12  1  0.33333333  0.00000000  0.49074074  1
  Y  Y13  1  0.99999998  0.25284719  0.49042443  1
  Y  Y14  1  0.00000002  0.74715281  0.49105705  1
  Y  Y15  1  0.25284713  0.49430574  0.46359570  1
  Y  Y16  1  0.66666667  0.99999999  0.54629630  1
  Y  Y17  1  0.74715283  0.25284717  0.49042443  1
  Y  Y18  1  0.25284718  0.74715282  0.49105705  1
  Y  Y19  1  0.66666666  0.00000001  0.49074074  1
  Y  Y20  1  0.75163627  0.49678392  0.62745415  1
  Y  Y21  1  0.30565313  0.07157536  0.65171766  1
  Y  Y22  1  0.35219402  0.97522223  0.60632214  1
  Y  Y23  1  0.00365433  0.25983199  0.60261412  1
  Y  Y24  1  0.99800453  0.75728378  0.60165094  1
  Y  Y25  1  0.25284713  0.49430574  0.57470681  1
  Y  Y26  1  0.62278029  0.07155681  0.65172330  1
  Y  Y27  1  0.73663211  0.25964652  0.60266691  1
  Y  Y28  1  0.24468538  0.75723689  0.60166223  1
  Y  Y29  1  0.67260210  0.97532007  0.60631208  1
  Cu  Cu30  1  0.99999999  0.00000000  0.37962963  1
  Cu  Cu31  1  0.00000001  0.99999999  0.43518519  1
  Cu  Cu32  1  0.99999999  0.00000000  0.49074074  1
  Cu  Cu33  1  0.00000001  0.99999999  0.54629630  1
  Cu  Cu34  1  0.00633199  0.98730484  0.60797246  1
  Cu  Cu35  1  0.01385801  0.97246020  0.65497096  1
  Pb  Pb36  1  0.60992304  0.39007697  0.41962108  1
  Pb  Pb37  1  0.00000001  0.60992303  0.33963818  1
  Pb  Pb38  1  1.00000000  0.39007695  0.41962109  1
  Pb  Pb39  1  0.60992308  0.78015384  0.43183475  1
  Pb  Pb40  1  0.39007692  0.21984616  0.32742451  1
  Pb  Pb41  1  0.39007695  0.60992305  0.33963817  1
  Pb  Pb42  1  0.60992304  0.39007697  0.53073220  1
  Pb  Pb43  1  0.00000001  0.60992303  0.45074929  1
  Pb  Pb44  1  1.00000000  0.39007695  0.53073220  1
  Pb  Pb45  1  0.60992308  0.78015384  0.54294586  1
  Pb  Pb46  1  0.39007692  0.21984616  0.43853562  1
  Pb  Pb47  1  0.39007695  0.60992305  0.45074928  1
  Pb  Pb48  1  0.60618691  0.39380322  0.64210716  1
  Pb  Pb49  1  0.00000001  0.60992303  0.56186040  1
  Pb  Pb50  1  0.00006070  0.39373920  0.64211751  1
  Pb  Pb51  1  0.60551240  0.78897059  0.65707245  1
  Pb  Pb52  1  0.39007692  0.21984616  0.54964673  1
  Pb  Pb53  1  0.39007695  0.60992305  0.56186040  1
