# generated using pymatgen
data_Hf5CuPb3
_symmetry_space_group_name_H-M   'P 1'
_cell_length_a   15.20808059
_cell_length_b   10.59854171
_cell_length_c   53.42229361
_cell_angle_alpha   55.94010503
_cell_angle_beta   90.00000279
_cell_angle_gamma   44.15474566
_symmetry_Int_Tables_number   1
_chemical_formula_structural   Hf5CuPb3
_chemical_formula_sum   'Hf30 Cu6 Pb18'
_cell_volume   3566.81449096
_cell_formula_units_Z   6
loop_
 _symmetry_equiv_pos_site_id
 _symmetry_equiv_pos_as_xyz
  1  'x, y, z'
loop_
 _atom_site_type_symbol
 _atom_site_label
 _atom_site_symmetry_multiplicity
 _atom_site_fract_x
 _atom_site_fract_y
 _atom_site_fract_z
 _atom_site_occupancy
  Hf  Hf0  1  0.66666666  0.00000001  0.37345679  1
  Hf  Hf1  1  0.25712710  0.48574584  0.34726281  1
  Hf  Hf2  1  0.25712711  0.74287270  0.37424871  1
  Hf  Hf3  1  0.99999990  0.74287312  0.37424866  1
  Hf  Hf4  1  0.33333335  0.00000008  0.42901234  1
  Hf  Hf5  1  0.33333330  0.00000000  0.37345679  1
  Hf  Hf6  1  0.74287287  0.51425422  0.39965077  1
  Hf  Hf7  1  0.66666672  0.99999993  0.42901235  1
  Hf  Hf8  1  0.99999987  0.25712728  0.37266487  1
  Hf  Hf9  1  0.74287301  0.25712692  0.37266490  1
  Hf  Hf10  1  0.66666666  0.00000001  0.48456790  1
  Hf  Hf11  1  0.25712710  0.48574584  0.45837392  1
  Hf  Hf12  1  0.25712711  0.74287270  0.48535982  1
  Hf  Hf13  1  0.99999990  0.74287312  0.48535977  1
  Hf  Hf14  1  0.33333335  0.00000008  0.54012345  1
  Hf  Hf15  1  0.33333330  0.00000000  0.48456790  1
  Hf  Hf16  1  0.74287287  0.51425422  0.51076188  1
  Hf  Hf17  1  0.66666672  0.99999993  0.54012346  1
  Hf  Hf18  1  0.99999987  0.25712728  0.48377598  1
  Hf  Hf19  1  0.74287301  0.25712692  0.48377601  1
  Hf  Hf20  1  0.68521634  0.97150114  0.60010649  1
  Hf  Hf21  1  0.25712710  0.48574584  0.56948503  1
  Hf  Hf22  1  0.26377942  0.75306694  0.59491812  1
  Hf  Hf23  1  0.98325950  0.75289914  0.59493412  1
  Hf  Hf24  1  0.32012649  0.07801654  0.64469412  1
  Hf  Hf25  1  0.34348207  0.97116442  0.60014723  1
  Hf  Hf26  1  0.73567768  0.52870473  0.61789757  1
  Hf  Hf27  1  0.60195263  0.07785835  0.64471524  1
  Hf  Hf28  1  0.00119553  0.25704287  0.59288921  1
  Hf  Hf29  1  0.74184633  0.25688307  0.59290076  1
  Cu  Cu30  1  0.00000008  0.99999991  0.37345680  1
  Cu  Cu31  1  0.00000004  0.99999996  0.42901236  1
  Cu  Cu32  1  0.00000008  0.99999991  0.48456791  1
  Cu  Cu33  1  0.00000004  0.99999996  0.54012347  1
  Cu  Cu34  1  0.05246286  0.89510574  0.61042461  1
  Cu  Cu35  1  0.00154026  0.99699216  0.64873936  1
  Pb  Pb36  1  0.00000044  0.38813321  0.41366421  1
  Pb  Pb37  1  0.61186589  0.38813459  0.41366405  1
  Pb  Pb38  1  0.61186588  0.77626779  0.42609370  1
  Pb  Pb39  1  0.00000046  0.61186542  0.33324953  1
  Pb  Pb40  1  0.38813366  0.22373225  0.43193098  1
  Pb  Pb41  1  0.38813366  0.61186677  0.33324938  1
  Pb  Pb42  1  0.00000044  0.38813321  0.52477532  1
  Pb  Pb43  1  0.61186589  0.38813459  0.52477516  1
  Pb  Pb44  1  0.61186588  0.77626779  0.53720481  1
  Pb  Pb45  1  0.00000046  0.61186542  0.44436064  1
  Pb  Pb46  1  0.38813366  0.22373225  0.54304209  1
  Pb  Pb47  1  0.38813366  0.61186677  0.44436049  1
  Pb  Pb48  1  0.02384931  0.33487863  0.64252828  1
  Pb  Pb49  1  0.64138142  0.33474841  0.64252075  1
  Pb  Pb50  1  0.63477056  0.73051253  0.65390305  1
  Pb  Pb51  1  0.00000046  0.61186542  0.55547175  1
  Pb  Pb52  1  0.36202137  0.27600245  0.65896342  1
  Pb  Pb53  1  0.38813366  0.61186677  0.55547160  1
