# generated using pymatgen
data_Hf5CuPb3
_symmetry_space_group_name_H-M   'P 1'
_cell_length_a   15.20808059
_cell_length_b   10.59854171
_cell_length_c   53.42229361
_cell_angle_alpha   55.94010503
_cell_angle_beta   90.00000279
_cell_angle_gamma   44.15474566
_symmetry_Int_Tables_number   1
_chemical_formula_structural   Hf5CuPb3
_chemical_formula_sum   'Hf30 Cu6 Pb18'
_cell_volume   3566.81449096
_cell_formula_units_Z   6
loop_
 _symmetry_equiv_pos_site_id
 _symmetry_equiv_pos_as_xyz
  1  'x, y, z'
loop_
 _atom_site_type_symbol
 _atom_site_label
 _atom_site_symmetry_multiplicity
 _atom_site_fract_x
 _atom_site_fract_y
 _atom_site_fract_z
 _atom_site_occupancy
  Hf  Hf0  1  0.66666666  0.00000001  0.36111111  1
  Hf  Hf1  1  0.25712710  0.48574584  0.33491713  1
  Hf  Hf2  1  0.25712711  0.74287270  0.36190303  1
  Hf  Hf3  1  0.99999990  0.74287312  0.36190298  1
  Hf  Hf4  1  0.33333335  0.00000008  0.41666666  1
  Hf  Hf5  1  0.33333330  0.00000000  0.36111111  1
  Hf  Hf6  1  0.74287287  0.51425422  0.38730509  1
  Hf  Hf7  1  0.66666672  0.99999993  0.41666667  1
  Hf  Hf8  1  0.99999987  0.25712728  0.36031919  1
  Hf  Hf9  1  0.74287301  0.25712692  0.36031922  1
  Hf  Hf10  1  0.66666666  0.00000001  0.47222222  1
  Hf  Hf11  1  0.25712710  0.48574584  0.44602824  1
  Hf  Hf12  1  0.25712711  0.74287270  0.47301415  1
  Hf  Hf13  1  0.99999990  0.74287312  0.47301409  1
  Hf  Hf14  1  0.33333335  0.00000008  0.52777777  1
  Hf  Hf15  1  0.33333330  0.00000000  0.47222222  1
  Hf  Hf16  1  0.74287287  0.51425422  0.49841620  1
  Hf  Hf17  1  0.66666672  0.99999993  0.52777778  1
  Hf  Hf18  1  0.99999987  0.25712728  0.47143030  1
  Hf  Hf19  1  0.74287301  0.25712692  0.47143034  1
  Hf  Hf20  1  0.66666666  0.00000001  0.58333334  1
  Hf  Hf21  1  0.25712710  0.48574584  0.55713935  1
  Hf  Hf22  1  0.25712711  0.74287270  0.58412526  1
  Hf  Hf23  1  0.99999990  0.74287312  0.58412520  1
  Hf  Hf24  1  0.31810025  0.03281766  0.63596989  1
  Hf  Hf25  1  0.33333330  0.00000000  0.58333333  1
  Hf  Hf26  1  0.73364764  0.53292168  0.60428043  1
  Hf  Hf27  1  0.64940286  0.03287423  0.63597986  1
  Hf  Hf28  1  0.99999987  0.25712728  0.58254141  1
  Hf  Hf29  1  0.74287301  0.25712692  0.58254145  1
  Cu  Cu30  1  0.00000008  0.99999991  0.36111112  1
  Cu  Cu31  1  0.00000004  0.99999996  0.41666668  1
  Cu  Cu32  1  0.00000008  0.99999991  0.47222223  1
  Cu  Cu33  1  0.00000004  0.99999996  0.52777779  1
  Cu  Cu34  1  0.00000008  0.99999991  0.58333334  1
  Cu  Cu35  1  0.01465221  0.97072543  0.63946620  1
  Pb  Pb36  1  0.00000044  0.38813321  0.40131853  1
  Pb  Pb37  1  0.61186589  0.38813459  0.40131837  1
  Pb  Pb38  1  0.61186588  0.77626779  0.41374802  1
  Pb  Pb39  1  0.00000046  0.61186542  0.43201496  1
  Pb  Pb40  1  0.38813366  0.22373225  0.41958530  1
  Pb  Pb41  1  0.38813366  0.61186677  0.43201481  1
  Pb  Pb42  1  0.00000044  0.38813321  0.51242964  1
  Pb  Pb43  1  0.61186589  0.38813459  0.51242948  1
  Pb  Pb44  1  0.61186588  0.77626779  0.52485913  1
  Pb  Pb45  1  0.00000046  0.61186542  0.54312607  1
  Pb  Pb46  1  0.38813366  0.22373225  0.53069641  1
  Pb  Pb47  1  0.38813366  0.61186677  0.54312592  1
  Pb  Pb48  1  0.01452522  0.35311232  0.63011419  1
  Pb  Pb49  1  0.63249711  0.35322456  0.63011925  1
  Pb  Pb50  1  0.62755150  0.74496113  0.64113364  1
  Pb  Pb51  1  0.00219735  0.60335347  0.65675207  1
  Pb  Pb52  1  0.39916958  0.20179207  0.64643394  1
  Pb  Pb53  1  0.39437888  0.60343332  0.65676203  1
