# generated using pymatgen
data_Y3Pt
_symmetry_space_group_name_H-M   'P 1'
_cell_length_a   13.16146253
_cell_length_b   9.77012174
_cell_length_c   35.68226988
_cell_angle_alpha   89.99999548
_cell_angle_beta   90.00008628
_cell_angle_gamma   89.99998804
_symmetry_Int_Tables_number   1
_chemical_formula_structural   Y3Pt
_chemical_formula_sum   'Y48 Pt16'
_cell_volume   4588.35065563
_cell_formula_units_Z   16
loop_
 _symmetry_equiv_pos_site_id
 _symmetry_equiv_pos_as_xyz
  1  'x, y, z'
loop_
 _atom_site_type_symbol
 _atom_site_label
 _atom_site_symmetry_multiplicity
 _atom_site_fract_x
 _atom_site_fract_y
 _atom_site_fract_z
 _atom_site_occupancy
  Y  Y0  1  0.43300636  0.74999982  0.44432749  1
  Y  Y1  1  0.93300636  0.74999982  0.44432749  1
  Y  Y2  1  0.18300519  0.25000021  0.35567140  1
  Y  Y3  1  0.68300519  0.25000021  0.35567140  1
  Y  Y4  1  0.31699372  0.74999982  0.34432747  1
  Y  Y5  1  0.81699372  0.74999982  0.34432747  1
  Y  Y6  1  0.06699471  0.25000020  0.45567135  1
  Y  Y7  1  0.56699471  0.25000020  0.45567135  1
  Y  Y8  1  0.15952153  0.93648522  0.41419935  1
  Y  Y9  1  0.65952153  0.93648522  0.41419935  1
  Y  Y10  1  0.40952343  0.06351909  0.38580088  1
  Y  Y11  1  0.90952343  0.06351909  0.38580088  1
  Y  Y12  1  0.09047873  0.56351513  0.31419945  1
  Y  Y13  1  0.59047873  0.56351513  0.31419945  1
  Y  Y14  1  0.34047664  0.43648076  0.48580088  1
  Y  Y15  1  0.84047664  0.43648076  0.48580088  1
  Y  Y16  1  0.34047652  0.06351898  0.48580087  1
  Y  Y17  1  0.84047652  0.06351898  0.48580087  1
  Y  Y18  1  0.09047862  0.93648527  0.31419946  1
  Y  Y19  1  0.59047862  0.93648527  0.31419946  1
  Y  Y20  1  0.40952325  0.43648055  0.38580089  1
  Y  Y21  1  0.90952325  0.43648055  0.38580089  1
  Y  Y22  1  0.15952136  0.56351508  0.41419933  1
  Y  Y23  1  0.65952136  0.56351508  0.41419933  1
  Y  Y24  1  0.43312245  0.74999985  0.64228492  1
  Y  Y25  1  0.93313300  0.74999982  0.64228422  1
  Y  Y26  1  0.18300519  0.25000021  0.55567140  1
  Y  Y27  1  0.68300519  0.25000021  0.55567140  1
  Y  Y28  1  0.31699372  0.74999982  0.54432747  1
  Y  Y29  1  0.81699372  0.74999982  0.54432747  1
  Y  Y30  1  0.06615169  0.25000011  0.65256581  1
  Y  Y31  1  0.56615906  0.25000014  0.65256586  1
  Y  Y32  1  0.15952153  0.93648522  0.61419935  1
  Y  Y33  1  0.65952153  0.93648522  0.61419935  1
  Y  Y34  1  0.40952343  0.06351909  0.58580088  1
  Y  Y35  1  0.90952343  0.06351909  0.58580088  1
  Y  Y36  1  0.09047873  0.56351513  0.51419945  1
  Y  Y37  1  0.59047873  0.56351513  0.51419945  1
  Y  Y38  1  0.32193401  0.44870019  0.68188457  1
  Y  Y39  1  0.82192737  0.44869560  0.68188309  1
  Y  Y40  1  0.32193428  0.05129960  0.68188463  1
  Y  Y41  1  0.82192756  0.05130421  0.68188313  1
  Y  Y42  1  0.09047862  0.93648527  0.51419946  1
  Y  Y43  1  0.59047862  0.93648527  0.51419946  1
  Y  Y44  1  0.40952325  0.43648055  0.58580089  1
  Y  Y45  1  0.90952325  0.43648055  0.58580089  1
  Y  Y46  1  0.15952136  0.56351508  0.61419933  1
  Y  Y47  1  0.65952136  0.56351508  0.61419933  1
  Pt  Pt48  1  0.02425565  0.75000034  0.37227171  1
  Pt  Pt49  1  0.52425565  0.75000034  0.37227171  1
  Pt  Pt50  1  0.27425536  0.24999974  0.42772889  1
  Pt  Pt51  1  0.77425536  0.24999974  0.42772889  1
  Pt  Pt52  1  0.22574421  0.75000011  0.47227167  1
  Pt  Pt53  1  0.72574421  0.75000011  0.47227167  1
  Pt  Pt54  1  0.47574472  0.24999968  0.32772890  1
  Pt  Pt55  1  0.97574472  0.24999968  0.32772890  1
  Pt  Pt56  1  0.02425565  0.75000034  0.57227171  1
  Pt  Pt57  1  0.52425565  0.75000034  0.57227171  1
  Pt  Pt58  1  0.27425536  0.24999974  0.62772889  1
  Pt  Pt59  1  0.77425536  0.24999974  0.62772889  1
  Pt  Pt60  1  0.23932953  0.75000013  0.66913125  1
  Pt  Pt61  1  0.73933633  0.75000014  0.66913095  1
  Pt  Pt62  1  0.47574472  0.24999968  0.52772890  1
  Pt  Pt63  1  0.97574472  0.24999968  0.52772890  1
