# generated using pymatgen
data_Y3Pt
_symmetry_space_group_name_H-M   'P 1'
_cell_length_a   13.16146253
_cell_length_b   9.77012174
_cell_length_c   35.68226988
_cell_angle_alpha   89.99999548
_cell_angle_beta   90.00008628
_cell_angle_gamma   89.99998804
_symmetry_Int_Tables_number   1
_chemical_formula_structural   Y3Pt
_chemical_formula_sum   'Y48 Pt16'
_cell_volume   4588.35065563
_cell_formula_units_Z   16
loop_
 _symmetry_equiv_pos_site_id
 _symmetry_equiv_pos_as_xyz
  1  'x, y, z'
loop_
 _atom_site_type_symbol
 _atom_site_label
 _atom_site_symmetry_multiplicity
 _atom_site_fract_x
 _atom_site_fract_y
 _atom_site_fract_z
 _atom_site_occupancy
  Y  Y0  1  0.43300636  0.74999982  0.39432749  1
  Y  Y1  1  0.93300636  0.74999982  0.39432749  1
  Y  Y2  1  0.18300519  0.25000021  0.30567140  1
  Y  Y3  1  0.68300519  0.25000021  0.30567140  1
  Y  Y4  1  0.31699372  0.74999982  0.49432747  1
  Y  Y5  1  0.81699372  0.74999982  0.49432747  1
  Y  Y6  1  0.06699471  0.25000020  0.40567135  1
  Y  Y7  1  0.56699471  0.25000020  0.40567135  1
  Y  Y8  1  0.15952153  0.93648522  0.36419935  1
  Y  Y9  1  0.65952153  0.93648522  0.36419935  1
  Y  Y10  1  0.40952343  0.06351909  0.33580088  1
  Y  Y11  1  0.90952343  0.06351909  0.33580088  1
  Y  Y12  1  0.09047873  0.56351513  0.46419945  1
  Y  Y13  1  0.59047873  0.56351513  0.46419945  1
  Y  Y14  1  0.34047664  0.43648076  0.43580088  1
  Y  Y15  1  0.84047664  0.43648076  0.43580088  1
  Y  Y16  1  0.34047652  0.06351898  0.43580087  1
  Y  Y17  1  0.84047652  0.06351898  0.43580087  1
  Y  Y18  1  0.09047862  0.93648527  0.46419946  1
  Y  Y19  1  0.59047862  0.93648527  0.46419946  1
  Y  Y20  1  0.40952325  0.43648055  0.33580089  1
  Y  Y21  1  0.90952325  0.43648055  0.33580089  1
  Y  Y22  1  0.15952136  0.56351508  0.36419933  1
  Y  Y23  1  0.65952136  0.56351508  0.36419933  1
  Y  Y24  1  0.43300636  0.74999982  0.59432749  1
  Y  Y25  1  0.93300636  0.74999982  0.59432749  1
  Y  Y26  1  0.18300519  0.25000021  0.50567140  1
  Y  Y27  1  0.68300519  0.25000021  0.50567140  1
  Y  Y28  1  0.34361500  0.74999988  0.68507476  1
  Y  Y29  1  0.84360684  0.74999988  0.68507372  1
  Y  Y30  1  0.06699471  0.25000020  0.60567135  1
  Y  Y31  1  0.56699471  0.25000020  0.60567135  1
  Y  Y32  1  0.15952153  0.93648522  0.56419935  1
  Y  Y33  1  0.65952153  0.93648522  0.56419935  1
  Y  Y34  1  0.40952343  0.06351909  0.53580088  1
  Y  Y35  1  0.90952343  0.06351909  0.53580088  1
  Y  Y36  1  0.08459360  0.56149239  0.66095950  1
  Y  Y37  1  0.58459783  0.56149726  0.66095750  1
  Y  Y38  1  0.34047664  0.43648076  0.63580088  1
  Y  Y39  1  0.84047664  0.43648076  0.63580088  1
  Y  Y40  1  0.34047652  0.06351898  0.63580087  1
  Y  Y41  1  0.84047652  0.06351898  0.63580087  1
  Y  Y42  1  0.08459347  0.93850767  0.66095948  1
  Y  Y43  1  0.58459770  0.93850280  0.66095748  1
  Y  Y44  1  0.40952325  0.43648055  0.53580089  1
  Y  Y45  1  0.90952325  0.43648055  0.53580089  1
  Y  Y46  1  0.15952136  0.56351508  0.56419933  1
  Y  Y47  1  0.65952136  0.56351508  0.56419933  1
  Pt  Pt48  1  0.02425565  0.75000034  0.32227171  1
  Pt  Pt49  1  0.52425565  0.75000034  0.32227171  1
  Pt  Pt50  1  0.27425536  0.24999974  0.37772889  1
  Pt  Pt51  1  0.77425536  0.24999974  0.37772889  1
  Pt  Pt52  1  0.22574421  0.75000011  0.42227167  1
  Pt  Pt53  1  0.72574421  0.75000011  0.42227167  1
  Pt  Pt54  1  0.47574472  0.24999968  0.47772890  1
  Pt  Pt55  1  0.97574472  0.24999968  0.47772890  1
  Pt  Pt56  1  0.02425565  0.75000034  0.52227171  1
  Pt  Pt57  1  0.52425565  0.75000034  0.52227171  1
  Pt  Pt58  1  0.27425536  0.24999974  0.57772889  1
  Pt  Pt59  1  0.77425536  0.24999974  0.57772889  1
  Pt  Pt60  1  0.22574421  0.75000011  0.62227167  1
  Pt  Pt61  1  0.72574421  0.75000011  0.62227167  1
  Pt  Pt62  1  0.47506014  0.24999977  0.67337051  1
  Pt  Pt63  1  0.97505817  0.24999978  0.67337045  1
