# generated using pymatgen
data_YCu
_symmetry_space_group_name_H-M   'P 1'
_cell_length_a   10.56519044
_cell_length_b   9.96095978
_cell_length_c   49.30422632
_cell_angle_alpha   44.99998943
_cell_angle_beta   89.99999951
_cell_angle_gamma   89.99998579
_symmetry_Int_Tables_number   1
_chemical_formula_structural   YCu
_chemical_formula_sum   'Y30 Cu30'
_cell_volume   3668.99894317
_cell_formula_units_Z   30
loop_
 _symmetry_equiv_pos_site_id
 _symmetry_equiv_pos_as_xyz
  1  'x, y, z'
loop_
 _atom_site_type_symbol
 _atom_site_label
 _atom_site_symmetry_multiplicity
 _atom_site_fract_x
 _atom_site_fract_y
 _atom_site_fract_z
 _atom_site_occupancy
  Y  Y0  1  0.00000000  0.00000000  0.35714286  1
  Y  Y1  1  0.00000000  0.50000000  0.35714286  1
  Y  Y2  1  0.33333334  0.00000000  0.35714286  1
  Y  Y3  1  0.33333334  0.50000000  0.35714286  1
  Y  Y4  1  0.66666667  0.00000000  0.35714286  1
  Y  Y5  1  0.66666667  0.50000000  0.35714286  1
  Y  Y6  1  0.00000000  0.00000000  0.42857143  1
  Y  Y7  1  0.00000000  0.50000000  0.42857143  1
  Y  Y8  1  0.33333334  0.00000000  0.42857143  1
  Y  Y9  1  0.33333334  0.50000000  0.42857143  1
  Y  Y10  1  0.66666667  0.00000000  0.42857143  1
  Y  Y11  1  0.66666667  0.50000000  0.42857143  1
  Y  Y12  1  0.00000000  0.00000000  0.50000000  1
  Y  Y13  1  0.00000000  0.50000000  0.50000000  1
  Y  Y14  1  0.33333334  0.00000000  0.50000000  1
  Y  Y15  1  0.33333334  0.50000000  0.50000000  1
  Y  Y16  1  0.66666667  0.00000000  0.50000000  1
  Y  Y17  1  0.66666667  0.50000000  0.50000000  1
  Y  Y18  1  0.00000000  0.00000000  0.57142857  1
  Y  Y19  1  0.00000000  0.50000000  0.57142857  1
  Y  Y20  1  0.33333334  0.00000000  0.57142857  1
  Y  Y21  1  0.33333334  0.50000000  0.57142857  1
  Y  Y22  1  0.66666667  0.00000000  0.57142857  1
  Y  Y23  1  0.66666667  0.50000000  0.57142857  1
  Y  Y24  1  0.00000002  0.00179480  0.64234352  1
  Y  Y25  1  0.00000000  0.50179471  0.64234354  1
  Y  Y26  1  0.33334156  0.00178907  0.64234509  1
  Y  Y27  1  0.33334158  0.50178903  0.64234508  1
  Y  Y28  1  0.66665846  0.00178889  0.64234511  1
  Y  Y29  1  0.66665848  0.50178916  0.64234508  1
  Cu  Cu30  1  0.16666666  0.25000000  0.35714286  1
  Cu  Cu31  1  0.16666666  0.75000000  0.35714286  1
  Cu  Cu32  1  0.50000000  0.25000000  0.35714286  1
  Cu  Cu33  1  0.50000000  0.75000000  0.35714286  1
  Cu  Cu34  1  0.83333333  0.25000000  0.35714286  1
  Cu  Cu35  1  0.83333333  0.75000000  0.35714286  1
  Cu  Cu36  1  0.16666666  0.25000000  0.42857143  1
  Cu  Cu37  1  0.16666666  0.75000000  0.42857143  1
  Cu  Cu38  1  0.50000000  0.25000000  0.42857143  1
  Cu  Cu39  1  0.50000000  0.75000000  0.42857143  1
  Cu  Cu40  1  0.83333333  0.25000000  0.42857143  1
  Cu  Cu41  1  0.83333333  0.75000000  0.42857143  1
  Cu  Cu42  1  0.16666666  0.25000000  0.50000000  1
  Cu  Cu43  1  0.16666666  0.75000000  0.50000000  1
  Cu  Cu44  1  0.50000000  0.25000000  0.50000000  1
  Cu  Cu45  1  0.50000000  0.75000000  0.50000000  1
  Cu  Cu46  1  0.83333333  0.25000000  0.50000000  1
  Cu  Cu47  1  0.83333333  0.75000000  0.50000000  1
  Cu  Cu48  1  0.16666666  0.25000000  0.57142857  1
  Cu  Cu49  1  0.16666666  0.75000000  0.57142857  1
  Cu  Cu50  1  0.50000000  0.25000000  0.57142857  1
  Cu  Cu51  1  0.50000000  0.75000000  0.57142857  1
  Cu  Cu52  1  0.83333333  0.25000000  0.57142857  1
  Cu  Cu53  1  0.83333333  0.75000000  0.57142857  1
  Cu  Cu54  1  0.16676417  0.26983871  0.63718546  1
  Cu  Cu55  1  0.16676415  0.76983877  0.63718546  1
  Cu  Cu56  1  0.50000004  0.26983342  0.63719063  1
  Cu  Cu57  1  0.49999996  0.76983337  0.63719066  1
  Cu  Cu58  1  0.83323587  0.26983874  0.63718546  1
  Cu  Cu59  1  0.83323599  0.76983875  0.63718547  1
