# generated using pymatgen
data_YCu
_symmetry_space_group_name_H-M   'P 1'
_cell_length_a   10.56519135
_cell_length_b   10.56519044
_cell_length_c   31.69557411
_cell_angle_alpha   90.00001958
_cell_angle_beta   90.00002120
_cell_angle_gamma   89.99999951
_symmetry_Int_Tables_number   1
_chemical_formula_structural   YCu
_chemical_formula_sum   'Y27 Cu27'
_cell_volume   3537.96326687
_cell_formula_units_Z   27
loop_
 _symmetry_equiv_pos_site_id
 _symmetry_equiv_pos_as_xyz
  1  'x, y, z'
loop_
 _atom_site_type_symbol
 _atom_site_label
 _atom_site_symmetry_multiplicity
 _atom_site_fract_x
 _atom_site_fract_y
 _atom_site_fract_z
 _atom_site_occupancy
  Y  Y0  1  0.00000196  0.99999885  0.58960527  1
  Y  Y1  1  0.00000138  0.33335825  0.58959073  1
  Y  Y2  1  0.00000378  0.66664294  0.58959097  1
  Y  Y3  1  0.33335476  0.99999674  0.58959106  1
  Y  Y4  1  0.33334641  0.33335127  0.58956779  1
  Y  Y5  1  0.33334533  0.66665196  0.58956828  1
  Y  Y6  1  0.66664326  0.99999971  0.58959177  1
  Y  Y7  1  0.66665222  0.33334908  0.58956777  1
  Y  Y8  1  0.66665081  0.66665115  0.58956810  1
  Y  Y9  1  0.00000001  0.00000000  0.47684298  1
  Y  Y10  1  0.00000001  0.33333334  0.47684298  1
  Y  Y11  1  0.00000001  0.66666667  0.47684298  1
  Y  Y12  1  0.33333334  0.00000000  0.47684298  1
  Y  Y13  1  0.33333334  0.33333334  0.47684298  1
  Y  Y14  1  0.33333334  0.66666667  0.47684298  1
  Y  Y15  1  0.66666667  0.00000000  0.47684298  1
  Y  Y16  1  0.66666667  0.33333334  0.47684298  1
  Y  Y17  1  0.66666667  0.66666667  0.47684298  1
  Y  Y18  1  0.00000001  0.00000000  0.36573187  1
  Y  Y19  1  0.00000001  0.33333334  0.36573187  1
  Y  Y20  1  0.00000001  0.66666667  0.36573187  1
  Y  Y21  1  0.33333334  0.00000000  0.36573187  1
  Y  Y22  1  0.33333334  0.33333334  0.36573187  1
  Y  Y23  1  0.33333334  0.66666667  0.36573187  1
  Y  Y24  1  0.66666667  0.00000000  0.36573187  1
  Y  Y25  1  0.66666667  0.33333334  0.36573187  1
  Y  Y26  1  0.66666667  0.66666667  0.36573187  1
  Cu  Cu27  1  0.16683529  0.16683584  0.63999569  1
  Cu  Cu28  1  0.16685167  0.50000026  0.63999891  1
  Cu  Cu29  1  0.16683617  0.83316415  0.63999460  1
  Cu  Cu30  1  0.50000088  0.16685099  0.64000134  1
  Cu  Cu31  1  0.49999995  0.50000047  0.64000139  1
  Cu  Cu32  1  0.50000020  0.83314880  0.63999995  1
  Cu  Cu33  1  0.83316410  0.16683566  0.63999465  1
  Cu  Cu34  1  0.83314856  0.49999968  0.64000044  1
  Cu  Cu35  1  0.83316384  0.83316478  0.63999561  1
  Cu  Cu36  1  0.16666667  0.16666666  0.53239849  1
  Cu  Cu37  1  0.16666667  0.50000000  0.53239849  1
  Cu  Cu38  1  0.16666667  0.83333333  0.53239849  1
  Cu  Cu39  1  0.50000000  0.16666666  0.53239849  1
  Cu  Cu40  1  0.50000000  0.50000000  0.53239849  1
  Cu  Cu41  1  0.50000000  0.83333333  0.53239849  1
  Cu  Cu42  1  0.83333334  0.16666666  0.53239849  1
  Cu  Cu43  1  0.83333334  0.50000000  0.53239849  1
  Cu  Cu44  1  0.83333334  0.83333333  0.53239849  1
  Cu  Cu45  1  0.16666667  0.16666666  0.42128738  1
  Cu  Cu46  1  0.16666667  0.50000000  0.42128738  1
  Cu  Cu47  1  0.16666667  0.83333333  0.42128738  1
  Cu  Cu48  1  0.50000000  0.16666666  0.42128738  1
  Cu  Cu49  1  0.50000000  0.50000000  0.42128738  1
  Cu  Cu50  1  0.50000000  0.83333333  0.42128738  1
  Cu  Cu51  1  0.83333334  0.16666666  0.42128738  1
  Cu  Cu52  1  0.83333334  0.50000000  0.42128738  1
  Cu  Cu53  1  0.83333334  0.83333333  0.42128738  1
