# generated using pymatgen
data_Y2AgIr
_symmetry_space_group_name_H-M   'P 1'
_cell_length_a   10.04246667
_cell_length_b   10.04246643
_cell_length_c   32.92642569
_cell_angle_alpha   85.62698613
_cell_angle_beta   85.62700460
_cell_angle_gamma   59.99999116
_symmetry_Int_Tables_number   1
_chemical_formula_structural   Y2AgIr
_chemical_formula_sum   'Y24 Ag12 Ir12'
_cell_volume   2864.61393857
_cell_formula_units_Z   12
loop_
 _symmetry_equiv_pos_site_id
 _symmetry_equiv_pos_as_xyz
  1  'x, y, z'
loop_
 _atom_site_type_symbol
 _atom_site_label
 _atom_site_symmetry_multiplicity
 _atom_site_fract_x
 _atom_site_fract_y
 _atom_site_fract_z
 _atom_site_occupancy
  Ag  Ag0  1  0.39843750  0.02343750  0.35937500  1
  Ag  Ag1  1  0.39843750  0.52343750  0.35937500  1
  Ag  Ag2  1  0.89843750  0.02343750  0.35937500  1
  Ag  Ag3  1  0.89843750  0.52343750  0.35937500  1
  Ag  Ag4  1  0.21093750  0.33593750  0.48437500  1
  Ag  Ag5  1  0.21093750  0.83593750  0.48437500  1
  Ag  Ag6  1  0.71093750  0.33593750  0.48437500  1
  Ag  Ag7  1  0.71093750  0.83593750  0.48437500  1
  Ag  Ag8  1  0.02343750  0.14843750  0.60937500  1
  Ag  Ag9  1  0.02343750  0.64843750  0.60937500  1
  Ag  Ag10  1  0.52343750  0.14843750  0.60937500  1
  Ag  Ag11  1  0.52343750  0.64843750  0.60937500  1
  Ir  Ir12  1  0.05468750  0.17968750  0.42187500  1
  Ir  Ir13  1  0.05468750  0.67968750  0.42187500  1
  Ir  Ir14  1  0.55468750  0.17968750  0.42187500  1
  Ir  Ir15  1  0.55468750  0.67968750  0.42187500  1
  Ir  Ir16  1  0.36718750  0.49218750  0.54687500  1
  Ir  Ir17  1  0.36718750  0.99218750  0.54687500  1
  Ir  Ir18  1  0.86718750  0.49218750  0.54687500  1
  Ir  Ir19  1  0.86718750  0.99218750  0.54687500  1
  Ir  Ir20  1  0.18210502  0.30710308  0.65737684  1
  Ir  Ir21  1  0.18210499  0.80710308  0.65737684  1
  Ir  Ir22  1  0.68210497  0.30710304  0.65737686  1
  Ir  Ir23  1  0.68210499  0.80710312  0.65737686  1
  Y  Y24  1  0.22656249  0.35156252  0.39062500  1
  Y  Y25  1  0.22656249  0.85156252  0.39062500  1
  Y  Y26  1  0.72656249  0.35156252  0.39062500  1
  Y  Y27  1  0.72656249  0.85156252  0.39062500  1
  Y  Y28  1  0.07031251  0.19531248  0.32812500  1
  Y  Y29  1  0.07031251  0.69531248  0.32812500  1
  Y  Y30  1  0.57031251  0.19531248  0.32812500  1
  Y  Y31  1  0.57031251  0.69531248  0.32812500  1
  Y  Y32  1  0.03906249  0.16406252  0.51562500  1
  Y  Y33  1  0.03906249  0.66406252  0.51562500  1
  Y  Y34  1  0.53906249  0.16406252  0.51562500  1
  Y  Y35  1  0.53906249  0.66406252  0.51562500  1
  Y  Y36  1  0.38281251  0.00781248  0.45312500  1
  Y  Y37  1  0.38281251  0.50781248  0.45312500  1
  Y  Y38  1  0.88281251  0.00781248  0.45312500  1
  Y  Y39  1  0.88281251  0.50781248  0.45312500  1
  Y  Y40  1  0.35073112  0.47572995  0.64561367  1
  Y  Y41  1  0.35073117  0.97572953  0.64561367  1
  Y  Y42  1  0.85073087  0.47572991  0.64561365  1
  Y  Y43  1  0.85073113  0.97572970  0.64561370  1
  Y  Y44  1  0.19531251  0.32031248  0.57812500  1
  Y  Y45  1  0.19531251  0.82031248  0.57812500  1
  Y  Y46  1  0.69531251  0.32031248  0.57812500  1
  Y  Y47  1  0.69531251  0.82031248  0.57812500  1
