# generated using pymatgen
data_Y2PdRu
_symmetry_space_group_name_H-M   'P 1'
_cell_length_a   9.86105041
_cell_length_b   9.86105033
_cell_length_c   32.33161568
_cell_angle_alpha   85.62698886
_cell_angle_beta   85.62699036
_cell_angle_gamma   59.99999672
_symmetry_Int_Tables_number   1
_chemical_formula_structural   Y2PdRu
_chemical_formula_sum   'Y24 Pd12 Ru12'
_cell_volume   2712.15500240
_cell_formula_units_Z   12
loop_
 _symmetry_equiv_pos_site_id
 _symmetry_equiv_pos_as_xyz
  1  'x, y, z'
loop_
 _atom_site_type_symbol
 _atom_site_label
 _atom_site_symmetry_multiplicity
 _atom_site_fract_x
 _atom_site_fract_y
 _atom_site_fract_z
 _atom_site_occupancy
  Pd  Pd0  1  0.18117662  0.30620366  0.66285953  1
  Pd  Pd1  1  0.18117610  0.80620186  0.66285960  1
  Pd  Pd2  1  0.68117572  0.30620271  0.66285982  1
  Pd  Pd3  1  0.68117712  0.80620281  0.66285933  1
  Pd  Pd4  1  0.36718750  0.49218750  0.54687500  1
  Pd  Pd5  1  0.36718750  0.99218750  0.54687500  1
  Pd  Pd6  1  0.86718750  0.49218750  0.54687500  1
  Pd  Pd7  1  0.86718750  0.99218750  0.54687500  1
  Pd  Pd8  1  0.05468750  0.17968750  0.42187500  1
  Pd  Pd9  1  0.05468750  0.67968750  0.42187500  1
  Pd  Pd10  1  0.55468750  0.17968750  0.42187500  1
  Pd  Pd11  1  0.55468750  0.67968750  0.42187500  1
  Ru  Ru12  1  0.02343750  0.14843750  0.60937500  1
  Ru  Ru13  1  0.02343750  0.64843750  0.60937500  1
  Ru  Ru14  1  0.52343750  0.14843750  0.60937500  1
  Ru  Ru15  1  0.52343750  0.64843750  0.60937500  1
  Ru  Ru16  1  0.21093750  0.33593750  0.48437500  1
  Ru  Ru17  1  0.21093750  0.83593750  0.48437500  1
  Ru  Ru18  1  0.71093750  0.33593750  0.48437500  1
  Ru  Ru19  1  0.71093750  0.83593750  0.48437500  1
  Ru  Ru20  1  0.39843750  0.02343750  0.35937500  1
  Ru  Ru21  1  0.39843750  0.52343750  0.35937500  1
  Ru  Ru22  1  0.89843750  0.02343750  0.35937500  1
  Ru  Ru23  1  0.89843750  0.52343750  0.35937500  1
  Y  Y24  1  0.19531250  0.32031250  0.57812500  1
  Y  Y25  1  0.19531250  0.82031250  0.57812500  1
  Y  Y26  1  0.69531250  0.32031250  0.57812500  1
  Y  Y27  1  0.69531250  0.82031250  0.57812500  1
  Y  Y28  1  0.35120056  0.47620713  0.64278708  1
  Y  Y29  1  0.35119948  0.97620511  0.64278692  1
  Y  Y30  1  0.85119902  0.47620586  0.64278683  1
  Y  Y31  1  0.85120072  0.97620649  0.64278715  1
  Y  Y32  1  0.38281250  0.00781250  0.45312500  1
  Y  Y33  1  0.38281250  0.50781250  0.45312500  1
  Y  Y34  1  0.88281250  0.00781250  0.45312500  1
  Y  Y35  1  0.88281250  0.50781250  0.45312500  1
  Y  Y36  1  0.03906250  0.16406250  0.51562500  1
  Y  Y37  1  0.03906250  0.66406250  0.51562500  1
  Y  Y38  1  0.53906250  0.16406250  0.51562500  1
  Y  Y39  1  0.53906250  0.66406250  0.51562500  1
  Y  Y40  1  0.07031250  0.19531250  0.32812500  1
  Y  Y41  1  0.07031250  0.69531250  0.32812500  1
  Y  Y42  1  0.57031250  0.19531250  0.32812500  1
  Y  Y43  1  0.57031250  0.69531250  0.32812500  1
  Y  Y44  1  0.22656250  0.35156250  0.39062500  1
  Y  Y45  1  0.22656250  0.85156250  0.39062500  1
  Y  Y46  1  0.72656250  0.35156250  0.39062500  1
  Y  Y47  1  0.72656250  0.85156250  0.39062500  1
