# generated using pymatgen
data_Sc2IrPd
_symmetry_space_group_name_H-M   'P 1'
_cell_length_a   9.32697111
_cell_length_b   9.32696966
_cell_length_c   34.26947843
_cell_angle_alpha   89.99999189
_cell_angle_beta   89.99998833
_cell_angle_gamma   119.99999782
_symmetry_Int_Tables_number   1
_chemical_formula_structural   Sc2IrPd
_chemical_formula_sum   'Sc24 Ir12 Pd12'
_cell_volume   2581.78058931
_cell_formula_units_Z   12
loop_
 _symmetry_equiv_pos_site_id
 _symmetry_equiv_pos_as_xyz
  1  'x, y, z'
loop_
 _atom_site_type_symbol
 _atom_site_label
 _atom_site_symmetry_multiplicity
 _atom_site_fract_x
 _atom_site_fract_y
 _atom_site_fract_z
 _atom_site_occupancy
  Ir  Ir0  1  0.04166811  0.08333619  0.64202916  1
  Ir  Ir1  1  0.04166783  0.58333578  0.64202926  1
  Ir  Ir2  1  0.54166772  0.08333555  0.64202908  1
  Ir  Ir3  1  0.54166817  0.58333563  0.64202936  1
  Ir  Ir4  1  0.37499999  0.24999996  0.54166667  1
  Ir  Ir5  1  0.37499999  0.74999996  0.54166667  1
  Ir  Ir6  1  0.87499999  0.24999996  0.54166667  1
  Ir  Ir7  1  0.87499999  0.74999996  0.54166667  1
  Ir  Ir8  1  0.20833333  0.41666663  0.43055556  1
  Ir  Ir9  1  0.20833333  0.91666663  0.43055556  1
  Ir  Ir10  1  0.70833333  0.41666663  0.43055556  1
  Ir  Ir11  1  0.70833333  0.91666663  0.43055556  1
  Pd  Pd12  1  0.20833013  0.41666062  0.59736956  1
  Pd  Pd13  1  0.20833059  0.91666051  0.59736969  1
  Pd  Pd14  1  0.70833047  0.41666088  0.59736962  1
  Pd  Pd15  1  0.70833017  0.91666062  0.59736964  1
  Pd  Pd16  1  0.04166668  0.08333335  0.48611111  1
  Pd  Pd17  1  0.04166668  0.58333335  0.48611111  1
  Pd  Pd18  1  0.54166668  0.08333335  0.48611111  1
  Pd  Pd19  1  0.54166668  0.58333335  0.48611111  1
  Pd  Pd20  1  0.37500001  0.25000002  0.37500000  1
  Pd  Pd21  1  0.37500001  0.75000002  0.37500000  1
  Pd  Pd22  1  0.87500001  0.25000002  0.37500000  1
  Pd  Pd23  1  0.87500001  0.75000002  0.37500000  1
  Sc  Sc24  1  0.37499980  0.24999990  0.62750264  1
  Sc  Sc25  1  0.37499938  0.74999786  0.62750374  1
  Sc  Sc26  1  0.87499920  0.24999928  0.62750273  1
  Sc  Sc27  1  0.87499999  0.74999992  0.62750322  1
  Sc  Sc28  1  0.04166665  0.08333336  0.56944443  1
  Sc  Sc29  1  0.04166665  0.58333336  0.56944443  1
  Sc  Sc30  1  0.54166665  0.08333336  0.56944443  1
  Sc  Sc31  1  0.54166665  0.58333336  0.56944443  1
  Sc  Sc32  1  0.20833334  0.41666665  0.51388890  1
  Sc  Sc33  1  0.20833334  0.91666665  0.51388890  1
  Sc  Sc34  1  0.70833334  0.41666665  0.51388890  1
  Sc  Sc35  1  0.70833334  0.91666665  0.51388890  1
  Sc  Sc36  1  0.37499998  0.25000003  0.45833332  1
  Sc  Sc37  1  0.37499998  0.75000003  0.45833332  1
  Sc  Sc38  1  0.87499998  0.25000003  0.45833332  1
  Sc  Sc39  1  0.87499998  0.75000003  0.45833332  1
  Sc  Sc40  1  0.04166668  0.08333332  0.40277779  1
  Sc  Sc41  1  0.04166668  0.58333332  0.40277779  1
  Sc  Sc42  1  0.54166668  0.08333332  0.40277779  1
  Sc  Sc43  1  0.54166668  0.58333332  0.40277779  1
  Sc  Sc44  1  0.20833331  0.41666670  0.34722221  1
  Sc  Sc45  1  0.20833331  0.91666670  0.34722221  1
  Sc  Sc46  1  0.70833331  0.41666670  0.34722221  1
  Sc  Sc47  1  0.70833331  0.91666670  0.34722221  1
