# generated using pymatgen
data_Ti2TcPd
_symmetry_space_group_name_H-M   'P 1'
_cell_length_a   8.90272999
_cell_length_b   8.90273072
_cell_length_c   32.71071231
_cell_angle_alpha   90.00000785
_cell_angle_beta   89.99998739
_cell_angle_gamma   119.99999593
_symmetry_Int_Tables_number   1
_chemical_formula_structural   Ti2TcPd
_chemical_formula_sum   'Ti24 Tc12 Pd12'
_cell_volume   2245.26233097
_cell_formula_units_Z   12
loop_
 _symmetry_equiv_pos_site_id
 _symmetry_equiv_pos_as_xyz
  1  'x, y, z'
loop_
 _atom_site_type_symbol
 _atom_site_label
 _atom_site_symmetry_multiplicity
 _atom_site_fract_x
 _atom_site_fract_y
 _atom_site_fract_z
 _atom_site_occupancy
  Pd  Pd0  1  0.04166680  0.45833322  0.64772729  1
  Pd  Pd1  1  0.04166679  0.95833348  0.64772715  1
  Pd  Pd2  1  0.54166637  0.45833319  0.64772735  1
  Pd  Pd3  1  0.54166657  0.95833324  0.64772695  1
  Pd  Pd4  1  0.37500000  0.12500000  0.54166667  1
  Pd  Pd5  1  0.37500000  0.62500000  0.54166667  1
  Pd  Pd6  1  0.87500000  0.12500000  0.54166667  1
  Pd  Pd7  1  0.87500000  0.62500000  0.54166667  1
  Pd  Pd8  1  0.20833333  0.29166666  0.43055556  1
  Pd  Pd9  1  0.20833333  0.79166666  0.43055556  1
  Pd  Pd10  1  0.70833333  0.29166666  0.43055556  1
  Pd  Pd11  1  0.70833333  0.79166666  0.43055556  1
  Tc  Tc12  1  0.20833314  0.29166595  0.59652030  1
  Tc  Tc13  1  0.20833552  0.79166833  0.59651999  1
  Tc  Tc14  1  0.70833183  0.29166411  0.59652010  1
  Tc  Tc15  1  0.70833262  0.79166807  0.59651995  1
  Tc  Tc16  1  0.04166669  0.45833334  0.48611110  1
  Tc  Tc17  1  0.04166669  0.95833334  0.48611110  1
  Tc  Tc18  1  0.54166669  0.45833334  0.48611110  1
  Tc  Tc19  1  0.54166669  0.95833334  0.48611110  1
  Tc  Tc20  1  0.37500002  0.12500000  0.37499999  1
  Tc  Tc21  1  0.37500002  0.62500000  0.37499999  1
  Tc  Tc22  1  0.87500002  0.12500000  0.37499999  1
  Tc  Tc23  1  0.87500002  0.62500000  0.37499999  1
  Ti  Ti24  1  0.37500009  0.12500017  0.62391989  1
  Ti  Ti25  1  0.37499999  0.62499989  0.62391990  1
  Ti  Ti26  1  0.87499998  0.12500006  0.62391992  1
  Ti  Ti27  1  0.87499978  0.62499979  0.62392005  1
  Ti  Ti28  1  0.04166662  0.45833328  0.56944444  1
  Ti  Ti29  1  0.04166662  0.95833328  0.56944444  1
  Ti  Ti30  1  0.54166662  0.45833328  0.56944444  1
  Ti  Ti31  1  0.54166662  0.95833328  0.56944444  1
  Ti  Ti32  1  0.20833337  0.29166671  0.51388890  1
  Ti  Ti33  1  0.20833337  0.79166671  0.51388890  1
  Ti  Ti34  1  0.70833337  0.29166671  0.51388890  1
  Ti  Ti35  1  0.70833337  0.79166671  0.51388890  1
  Ti  Ti36  1  0.37499995  0.12499995  0.45833333  1
  Ti  Ti37  1  0.37499995  0.62499995  0.45833333  1
  Ti  Ti38  1  0.87499995  0.12499995  0.45833333  1
  Ti  Ti39  1  0.87499995  0.62499995  0.45833333  1
  Ti  Ti40  1  0.04166670  0.45833338  0.40277779  1
  Ti  Ti41  1  0.04166670  0.95833338  0.40277779  1
  Ti  Ti42  1  0.54166670  0.45833338  0.40277779  1
  Ti  Ti43  1  0.54166670  0.95833338  0.40277779  1
  Ti  Ti44  1  0.20833328  0.29166662  0.34722222  1
  Ti  Ti45  1  0.20833328  0.79166662  0.34722222  1
  Ti  Ti46  1  0.70833328  0.29166662  0.34722222  1
  Ti  Ti47  1  0.70833328  0.79166662  0.34722222  1
