# generated using pymatgen
data_Sc2OsPd
_symmetry_space_group_name_H-M   'P 1'
_cell_length_a   9.28489845
_cell_length_b   13.13082489
_cell_length_c   37.13960463
_cell_angle_alpha   89.99998124
_cell_angle_beta   90.00001635
_cell_angle_gamma   89.99998743
_symmetry_Int_Tables_number   1
_chemical_formula_structural   Sc2OsPd
_chemical_formula_sum   'Sc48 Os24 Pd24'
_cell_volume   4528.00026946
_cell_formula_units_Z   24
loop_
 _symmetry_equiv_pos_site_id
 _symmetry_equiv_pos_as_xyz
  1  'x, y, z'
loop_
 _atom_site_type_symbol
 _atom_site_label
 _atom_site_symmetry_multiplicity
 _atom_site_fract_x
 _atom_site_fract_y
 _atom_site_fract_z
 _atom_site_occupancy
  Os  Os0  1  0.12499997  0.00000000  0.40624999  1
  Os  Os1  1  0.12499997  0.50000000  0.40624999  1
  Os  Os2  1  0.62499997  0.00000000  0.40624999  1
  Os  Os3  1  0.62499997  0.50000000  0.40624999  1
  Os  Os4  1  0.37499996  0.25000003  0.34374998  1
  Os  Os5  1  0.37499996  0.75000003  0.34374998  1
  Os  Os6  1  0.87499996  0.25000003  0.34374998  1
  Os  Os7  1  0.87499996  0.75000003  0.34374998  1
  Os  Os8  1  0.12499997  0.00000000  0.53124999  1
  Os  Os9  1  0.12499997  0.50000000  0.53124999  1
  Os  Os10  1  0.62499997  0.00000000  0.53124999  1
  Os  Os11  1  0.62499997  0.50000000  0.53124999  1
  Os  Os12  1  0.37499996  0.25000003  0.46874998  1
  Os  Os13  1  0.37499996  0.75000003  0.46874998  1
  Os  Os14  1  0.87499996  0.25000003  0.46874998  1
  Os  Os15  1  0.87499996  0.75000003  0.46874998  1
  Os  Os16  1  0.12500009  0.99999997  0.65209283  1
  Os  Os17  1  0.12500007  0.50000001  0.65209279  1
  Os  Os18  1  0.62500005  0.99999999  0.65209284  1
  Os  Os19  1  0.62499992  0.50000004  0.65209280  1
  Os  Os20  1  0.37499996  0.25000003  0.59374998  1
  Os  Os21  1  0.37499996  0.75000003  0.59374998  1
  Os  Os22  1  0.87499996  0.25000003  0.59374998  1
  Os  Os23  1  0.87499996  0.75000003  0.59374998  1
  Pd  Pd24  1  0.37500007  0.49999994  0.34375001  1
  Pd  Pd25  1  0.37500007  0.99999994  0.34375001  1
  Pd  Pd26  1  0.87500007  0.49999994  0.34375001  1
  Pd  Pd27  1  0.87500007  0.99999994  0.34375001  1
  Pd  Pd28  1  0.12500001  0.25000005  0.40625000  1
  Pd  Pd29  1  0.12500001  0.75000005  0.40625000  1
  Pd  Pd30  1  0.62500001  0.25000005  0.40625000  1
  Pd  Pd31  1  0.62500001  0.75000005  0.40625000  1
  Pd  Pd32  1  0.37500007  0.49999994  0.46875001  1
  Pd  Pd33  1  0.37500007  0.99999994  0.46875001  1
  Pd  Pd34  1  0.87500007  0.49999994  0.46875001  1
  Pd  Pd35  1  0.87500007  0.99999994  0.46875001  1
  Pd  Pd36  1  0.12500001  0.25000005  0.53125000  1
  Pd  Pd37  1  0.12500001  0.75000005  0.53125000  1
  Pd  Pd38  1  0.62500001  0.25000005  0.53125000  1
  Pd  Pd39  1  0.62500001  0.75000005  0.53125000  1
  Pd  Pd40  1  0.37500007  0.49999994  0.59375001  1
  Pd  Pd41  1  0.37500007  0.99999994  0.59375001  1
  Pd  Pd42  1  0.87500007  0.49999994  0.59375001  1
  Pd  Pd43  1  0.87500007  0.99999994  0.59375001  1
  Pd  Pd44  1  0.12500003  0.24999989  0.65357201  1
  Pd  Pd45  1  0.12500005  0.75000003  0.65357213  1
  Pd  Pd46  1  0.62499995  0.24999984  0.65357209  1
  Pd  Pd47  1  0.62499989  0.75000017  0.65357218  1
  Sc  Sc48  1  0.12500004  0.12499974  0.34375001  1
  Sc  Sc49  1  0.12500004  0.62499974  0.34375001  1
  Sc  Sc50  1  0.62500004  0.12499974  0.34375001  1
  Sc  Sc51  1  0.62500004  0.62499974  0.34375001  1
  Sc  Sc52  1  0.37500001  0.12499976  0.40625001  1
  Sc  Sc53  1  0.37500001  0.62499976  0.40625001  1
  Sc  Sc54  1  0.87500001  0.12499976  0.40625001  1
  Sc  Sc55  1  0.87500001  0.62499976  0.40625001  1
  Sc  Sc56  1  0.37499999  0.37500023  0.40625000  1
  Sc  Sc57  1  0.37499999  0.87500023  0.40625000  1
  Sc  Sc58  1  0.87499999  0.37500023  0.40625000  1
  Sc  Sc59  1  0.87499999  0.87500023  0.40625000  1
  Sc  Sc60  1  0.12499996  0.37500024  0.34375001  1
  Sc  Sc61  1  0.12499996  0.87500024  0.34375001  1
  Sc  Sc62  1  0.62499996  0.37500024  0.34375001  1
  Sc  Sc63  1  0.62499996  0.87500024  0.34375001  1
  Sc  Sc64  1  0.12500004  0.12499974  0.46875001  1
  Sc  Sc65  1  0.12500004  0.62499974  0.46875001  1
  Sc  Sc66  1  0.62500004  0.12499974  0.46875001  1
  Sc  Sc67  1  0.62500004  0.62499974  0.46875001  1
  Sc  Sc68  1  0.37500001  0.12499976  0.53125001  1
  Sc  Sc69  1  0.37500001  0.62499976  0.53125001  1
  Sc  Sc70  1  0.87500001  0.12499976  0.53125001  1
  Sc  Sc71  1  0.87500001  0.62499976  0.53125001  1
  Sc  Sc72  1  0.37499999  0.37500023  0.53125000  1
  Sc  Sc73  1  0.37499999  0.87500023  0.53125000  1
  Sc  Sc74  1  0.87499999  0.37500023  0.53125000  1
  Sc  Sc75  1  0.87499999  0.87500023  0.53125000  1
  Sc  Sc76  1  0.12499996  0.37500024  0.46875001  1
  Sc  Sc77  1  0.12499996  0.87500024  0.46875001  1
  Sc  Sc78  1  0.62499996  0.37500024  0.46875001  1
  Sc  Sc79  1  0.62499996  0.87500024  0.46875001  1
  Sc  Sc80  1  0.12500004  0.12499974  0.59375001  1
  Sc  Sc81  1  0.12500004  0.62499974  0.59375001  1
  Sc  Sc82  1  0.62500004  0.12499974  0.59375001  1
  Sc  Sc83  1  0.62500004  0.62499974  0.59375001  1
  Sc  Sc84  1  0.37500012  0.12189225  0.65593721  1
  Sc  Sc85  1  0.37500005  0.62189218  0.65593719  1
  Sc  Sc86  1  0.87499985  0.12189233  0.65593716  1
  Sc  Sc87  1  0.87499999  0.62189227  0.65593711  1
  Sc  Sc88  1  0.37500017  0.37810746  0.65593724  1
  Sc  Sc89  1  0.37499995  0.87810783  0.65593716  1
  Sc  Sc90  1  0.87500001  0.37810769  0.65593718  1
  Sc  Sc91  1  0.87500001  0.87810795  0.65593716  1
  Sc  Sc92  1  0.12499996  0.37500024  0.59375001  1
  Sc  Sc93  1  0.12499996  0.87500024  0.59375001  1
  Sc  Sc94  1  0.62499996  0.37500024  0.59375001  1
  Sc  Sc95  1  0.62499996  0.87500024  0.59375001  1
