# generated using pymatgen
data_Y2AgIr
_symmetry_space_group_name_H-M   'P 1'
_cell_length_a   10.04246668
_cell_length_b   10.04246685
_cell_length_c   35.50547341
_cell_angle_alpha   89.99999623
_cell_angle_beta   89.99998648
_cell_angle_gamma   90.00000519
_symmetry_Int_Tables_number   1
_chemical_formula_structural   Y2AgIr
_chemical_formula_sum   'Y32 Ag16 Ir16'
_cell_volume   3580.76742441
_cell_formula_units_Z   16
loop_
 _symmetry_equiv_pos_site_id
 _symmetry_equiv_pos_as_xyz
  1  'x, y, z'
loop_
 _atom_site_type_symbol
 _atom_site_label
 _atom_site_symmetry_multiplicity
 _atom_site_fract_x
 _atom_site_fract_y
 _atom_site_fract_z
 _atom_site_occupancy
  Ag  Ag0  1  0.49999999  0.00000002  0.37500000  1
  Ag  Ag1  1  0.49999999  0.50000002  0.37500000  1
  Ag  Ag2  1  0.99999999  0.00000002  0.37500000  1
  Ag  Ag3  1  0.99999999  0.50000002  0.37500000  1
  Ag  Ag4  1  0.25000002  0.24999999  0.47499999  1
  Ag  Ag5  1  0.25000002  0.74999999  0.47499999  1
  Ag  Ag6  1  0.75000002  0.24999999  0.47499999  1
  Ag  Ag7  1  0.75000002  0.74999999  0.47499999  1
  Ag  Ag8  1  0.49999999  0.00000002  0.57500000  1
  Ag  Ag9  1  0.49999999  0.50000002  0.57500000  1
  Ag  Ag10  1  0.99999999  0.00000002  0.57500000  1
  Ag  Ag11  1  0.99999999  0.50000002  0.57500000  1
  Ag  Ag12  1  0.24999995  0.25000000  0.68129928  1
  Ag  Ag13  1  0.24999994  0.74999997  0.68129936  1
  Ag  Ag14  1  0.75000000  0.25000002  0.68129930  1
  Ag  Ag15  1  0.75000000  0.74999995  0.68129931  1
  Ir  Ir16  1  0.00000001  0.50000000  0.47500000  1
  Ir  Ir17  1  0.00000001  1.00000000  0.47500000  1
  Ir  Ir18  1  0.50000001  0.50000000  0.47500000  1
  Ir  Ir19  1  0.50000001  1.00000000  0.47500000  1
  Ir  Ir20  1  0.24999998  0.24999997  0.37500000  1
  Ir  Ir21  1  0.24999998  0.74999997  0.37500000  1
  Ir  Ir22  1  0.74999998  0.24999997  0.37500000  1
  Ir  Ir23  1  0.74999998  0.74999997  0.37500000  1
  Ir  Ir24  1  0.99999993  0.50000000  0.66172155  1
  Ir  Ir25  1  0.99999997  0.99999998  0.66172198  1
  Ir  Ir26  1  0.49999996  0.50000001  0.66172228  1
  Ir  Ir27  1  0.49999992  0.99999995  0.66172117  1
  Ir  Ir28  1  0.24999998  0.24999997  0.57500000  1
  Ir  Ir29  1  0.24999998  0.74999997  0.57500000  1
  Ir  Ir30  1  0.74999998  0.24999997  0.57500000  1
  Ir  Ir31  1  0.74999998  0.74999997  0.57500000  1
  Y  Y32  1  0.00000002  0.25000000  0.32499999  1
  Y  Y33  1  0.00000002  0.75000000  0.32499999  1
  Y  Y34  1  0.50000002  0.25000000  0.32499999  1
  Y  Y35  1  0.50000002  0.75000000  0.32499999  1
  Y  Y36  1  0.25000001  0.00000001  0.32500000  1
  Y  Y37  1  0.25000001  0.50000001  0.32500000  1
  Y  Y38  1  0.75000001  0.00000001  0.32500000  1
  Y  Y39  1  0.75000001  0.50000001  0.32500000  1
  Y  Y40  1  0.24999998  0.49999998  0.42500000  1
  Y  Y41  1  0.24999998  0.99999998  0.42500000  1
  Y  Y42  1  0.74999998  0.49999998  0.42500000  1
  Y  Y43  1  0.74999998  0.99999998  0.42500000  1
  Y  Y44  1  0.50000000  0.25000001  0.42500001  1
  Y  Y45  1  0.50000000  0.75000001  0.42500001  1
  Y  Y46  1  1.00000000  0.25000001  0.42500001  1
  Y  Y47  1  1.00000000  0.75000001  0.42500001  1
  Y  Y48  1  0.00000002  0.25000000  0.52499999  1
  Y  Y49  1  0.00000002  0.75000000  0.52499999  1
  Y  Y50  1  0.50000002  0.25000000  0.52499999  1
  Y  Y51  1  0.50000002  0.75000000  0.52499999  1
  Y  Y52  1  0.25000001  0.00000001  0.52500000  1
  Y  Y53  1  0.25000001  0.50000001  0.52500000  1
  Y  Y54  1  0.75000001  0.00000001  0.52500000  1
  Y  Y55  1  0.75000001  0.50000001  0.52500000  1
  Y  Y56  1  0.25000051  0.49999905  0.62694498  1
  Y  Y57  1  0.24999952  0.00000093  0.62694482  1
  Y  Y58  1  0.74999953  0.50000003  0.62694497  1
  Y  Y59  1  0.75000051  0.99999998  0.62694480  1
  Y  Y60  1  0.49999957  0.25000080  0.62694479  1
  Y  Y61  1  0.50000054  0.74999921  0.62694498  1
  Y  Y62  1  0.00000046  0.24999979  0.62694480  1
  Y  Y63  1  0.99999947  0.75000020  0.62694497  1
