# generated using pymatgen
data_ZnCuAu2
_symmetry_space_group_name_H-M   'P 1'
_cell_length_a   8.98330273
_cell_length_b   8.98330423
_cell_length_c   33.00676317
_cell_angle_alpha   89.99999298
_cell_angle_beta   89.99999930
_cell_angle_gamma   120.00000344
_symmetry_Int_Tables_number   1
_chemical_formula_structural   ZnCuAu2
_chemical_formula_sum   'Zn12 Cu12 Au24'
_cell_volume   2306.77744635
_cell_formula_units_Z   12
loop_
 _symmetry_equiv_pos_site_id
 _symmetry_equiv_pos_as_xyz
  1  'x, y, z'
loop_
 _atom_site_type_symbol
 _atom_site_label
 _atom_site_symmetry_multiplicity
 _atom_site_fract_x
 _atom_site_fract_y
 _atom_site_fract_z
 _atom_site_occupancy
  Au  Au0  1  0.41666668  0.45833334  0.56944444  1
  Au  Au1  1  0.41666668  0.95833334  0.56944444  1
  Au  Au2  1  0.91666668  0.45833334  0.56944444  1
  Au  Au3  1  0.91666668  0.95833334  0.56944444  1
  Au  Au4  1  0.25000104  0.12499775  0.62881077  1
  Au  Au5  1  0.25000138  0.62500356  0.62881083  1
  Au  Au6  1  0.74999588  0.12499833  0.62881081  1
  Au  Au7  1  0.74999978  0.62499949  0.62881096  1
  Au  Au8  1  0.25000001  0.12500000  0.45833333  1
  Au  Au9  1  0.25000001  0.62500000  0.45833333  1
  Au  Au10  1  0.75000001  0.12500000  0.45833333  1
  Au  Au11  1  0.75000001  0.62500000  0.45833333  1
  Au  Au12  1  0.08333331  0.29166666  0.51388889  1
  Au  Au13  1  0.08333331  0.79166666  0.51388889  1
  Au  Au14  1  0.58333331  0.29166666  0.51388889  1
  Au  Au15  1  0.58333331  0.79166666  0.51388889  1
  Au  Au16  1  0.08333334  0.29166667  0.34722222  1
  Au  Au17  1  0.08333334  0.79166667  0.34722222  1
  Au  Au18  1  0.58333334  0.29166667  0.34722222  1
  Au  Au19  1  0.58333334  0.79166667  0.34722222  1
  Au  Au20  1  0.41666664  0.45833333  0.40277778  1
  Au  Au21  1  0.41666664  0.95833333  0.40277778  1
  Au  Au22  1  0.91666664  0.45833333  0.40277778  1
  Au  Au23  1  0.91666664  0.95833333  0.40277778  1
  Cu  Cu24  1  0.41666694  0.45833414  0.64715597  1
  Cu  Cu25  1  0.41666608  0.95833363  0.64715552  1
  Cu  Cu26  1  0.91666569  0.45833401  0.64715603  1
  Cu  Cu27  1  0.91666579  0.95833308  0.64715600  1
  Cu  Cu28  1  0.25000001  0.12500000  0.54166667  1
  Cu  Cu29  1  0.25000001  0.62500000  0.54166667  1
  Cu  Cu30  1  0.75000001  0.12500000  0.54166667  1
  Cu  Cu31  1  0.75000001  0.62500000  0.54166667  1
  Cu  Cu32  1  0.08333334  0.29166667  0.43055556  1
  Cu  Cu33  1  0.08333334  0.79166667  0.43055556  1
  Cu  Cu34  1  0.58333334  0.29166667  0.43055556  1
  Cu  Cu35  1  0.58333334  0.79166667  0.43055556  1
  Zn  Zn36  1  0.08333374  0.29166626  0.60798219  1
  Zn  Zn37  1  0.08333559  0.79166736  0.60798237  1
  Zn  Zn38  1  0.58333302  0.29166476  0.60798235  1
  Zn  Zn39  1  0.58333274  0.79166733  0.60798234  1
  Zn  Zn40  1  0.41666667  0.45833334  0.48611111  1
  Zn  Zn41  1  0.41666667  0.95833334  0.48611111  1
  Zn  Zn42  1  0.91666667  0.45833334  0.48611111  1
  Zn  Zn43  1  0.91666667  0.95833334  0.48611111  1
  Zn  Zn44  1  0.25000000  0.12500000  0.37500000  1
  Zn  Zn45  1  0.25000000  0.62500000  0.37500000  1
  Zn  Zn46  1  0.75000000  0.12500000  0.37500000  1
  Zn  Zn47  1  0.75000000  0.62500000  0.37500000  1
