# generated using pymatgen
data_Sc2CuTc
_symmetry_space_group_name_H-M   'P 1'
_cell_length_a   9.25631542
_cell_length_b   9.25632087
_cell_length_c   34.00987786
_cell_angle_alpha   89.99995265
_cell_angle_beta   89.99997493
_cell_angle_gamma   59.99999676
_symmetry_Int_Tables_number   1
_chemical_formula_structural   Sc2CuTc
_chemical_formula_sum   'Sc24 Cu12 Tc12'
_cell_volume   2523.55187239
_cell_formula_units_Z   12
loop_
 _symmetry_equiv_pos_site_id
 _symmetry_equiv_pos_as_xyz
  1  'x, y, z'
loop_
 _atom_site_type_symbol
 _atom_site_label
 _atom_site_symmetry_multiplicity
 _atom_site_fract_x
 _atom_site_fract_y
 _atom_site_fract_z
 _atom_site_occupancy
  Cu  Cu0  1  0.04166875  0.04166421  0.64554293  1
  Cu  Cu1  1  0.04166902  0.54166742  0.64554320  1
  Cu  Cu2  1  0.54166573  0.04166776  0.64554412  1
  Cu  Cu3  1  0.54166363  0.54166824  0.64554331  1
  Cu  Cu4  1  0.37499998  0.37500004  0.54166667  1
  Cu  Cu5  1  0.37499998  0.87500004  0.54166667  1
  Cu  Cu6  1  0.87499998  0.37500004  0.54166667  1
  Cu  Cu7  1  0.87499998  0.87500004  0.54166667  1
  Cu  Cu8  1  0.20833331  0.20833337  0.43055556  1
  Cu  Cu9  1  0.20833331  0.70833337  0.43055556  1
  Cu  Cu10  1  0.70833331  0.20833337  0.43055556  1
  Cu  Cu11  1  0.70833331  0.70833337  0.43055556  1
  Sc  Sc12  1  0.37499610  0.37500294  0.62601914  1
  Sc  Sc13  1  0.37499754  0.87500029  0.62601934  1
  Sc  Sc14  1  0.87500290  0.37499965  0.62601858  1
  Sc  Sc15  1  0.87500408  0.87499696  0.62601889  1
  Sc  Sc16  1  0.04166670  0.04166667  0.56944444  1
  Sc  Sc17  1  0.04166670  0.54166667  0.56944444  1
  Sc  Sc18  1  0.54166670  0.04166667  0.56944444  1
  Sc  Sc19  1  0.54166670  0.54166667  0.56944444  1
  Sc  Sc20  1  0.20833334  0.20833332  0.51388888  1
  Sc  Sc21  1  0.20833334  0.70833332  0.51388888  1
  Sc  Sc22  1  0.70833334  0.20833332  0.51388888  1
  Sc  Sc23  1  0.70833334  0.70833332  0.51388888  1
  Sc  Sc24  1  0.37500003  0.37500000  0.45833333  1
  Sc  Sc25  1  0.37500003  0.87500000  0.45833333  1
  Sc  Sc26  1  0.87500003  0.37500000  0.45833333  1
  Sc  Sc27  1  0.87500003  0.87500000  0.45833333  1
  Sc  Sc28  1  0.04166668  0.04166665  0.40277777  1
  Sc  Sc29  1  0.04166668  0.54166665  0.40277777  1
  Sc  Sc30  1  0.54166668  0.04166665  0.40277777  1
  Sc  Sc31  1  0.54166668  0.54166665  0.40277777  1
  Sc  Sc32  1  0.20833336  0.20833333  0.34722222  1
  Sc  Sc33  1  0.20833336  0.70833333  0.34722222  1
  Sc  Sc34  1  0.70833336  0.20833333  0.34722222  1
  Sc  Sc35  1  0.70833336  0.70833333  0.34722222  1
  Tc  Tc36  1  0.20833130  0.20833475  0.60050828  1
  Tc  Tc37  1  0.20833212  0.70833360  0.60050964  1
  Tc  Tc38  1  0.70833469  0.20833341  0.60050749  1
  Tc  Tc39  1  0.70833505  0.70833179  0.60050789  1
  Tc  Tc40  1  0.04166665  0.04166664  0.48611113  1
  Tc  Tc41  1  0.04166665  0.54166664  0.48611113  1
  Tc  Tc42  1  0.54166665  0.04166664  0.48611113  1
  Tc  Tc43  1  0.54166665  0.54166664  0.48611113  1
  Tc  Tc44  1  0.37499998  0.37499997  0.37500001  1
  Tc  Tc45  1  0.37499998  0.87499997  0.37500001  1
  Tc  Tc46  1  0.87499998  0.37499997  0.37500001  1
  Tc  Tc47  1  0.87499998  0.87499997  0.37500001  1
