# generated using pymatgen
data_Ca2ZnRh
_symmetry_space_group_name_H-M   'P 1'
_cell_length_a   10.16528032
_cell_length_b   14.37588214
_cell_length_c   30.49583878
_cell_angle_alpha   90.00000147
_cell_angle_beta   90.00000969
_cell_angle_gamma   89.99998800
_symmetry_Int_Tables_number   1
_chemical_formula_structural   Ca2ZnRh
_chemical_formula_sum   'Ca32 Zn16 Rh16'
_cell_volume   4456.50549056
_cell_formula_units_Z   16
loop_
 _symmetry_equiv_pos_site_id
 _symmetry_equiv_pos_as_xyz
  1  'x, y, z'
loop_
 _atom_site_type_symbol
 _atom_site_label
 _atom_site_symmetry_multiplicity
 _atom_site_fract_x
 _atom_site_fract_y
 _atom_site_fract_z
 _atom_site_occupancy
  Ca  Ca0  1  0.12499999  0.12065901  0.62682006  1
  Ca  Ca1  1  0.12500006  0.62065908  0.62682006  1
  Ca  Ca2  1  0.62500007  0.12065902  0.62682006  1
  Ca  Ca3  1  0.62500000  0.62065908  0.62682007  1
  Ca  Ca4  1  0.37499999  0.12499969  0.54166667  1
  Ca  Ca5  1  0.37499999  0.62499969  0.54166667  1
  Ca  Ca6  1  0.87499999  0.12499969  0.54166667  1
  Ca  Ca7  1  0.87499999  0.62499969  0.54166667  1
  Ca  Ca8  1  0.37500001  0.37500031  0.54166666  1
  Ca  Ca9  1  0.37500001  0.87500031  0.54166666  1
  Ca  Ca10  1  0.87500001  0.37500031  0.54166666  1
  Ca  Ca11  1  0.87500001  0.87500031  0.54166666  1
  Ca  Ca12  1  0.12500003  0.37934098  0.62682004  1
  Ca  Ca13  1  0.12499997  0.87934096  0.62682008  1
  Ca  Ca14  1  0.62499996  0.37934096  0.62682005  1
  Ca  Ca15  1  0.62500002  0.87934096  0.62682009  1
  Ca  Ca16  1  0.12499998  0.12499971  0.45833333  1
  Ca  Ca17  1  0.12499998  0.62499971  0.45833333  1
  Ca  Ca18  1  0.62499998  0.12499971  0.45833333  1
  Ca  Ca19  1  0.62499998  0.62499971  0.45833333  1
  Ca  Ca20  1  0.37499999  0.12499969  0.37500000  1
  Ca  Ca21  1  0.37499999  0.62499969  0.37500000  1
  Ca  Ca22  1  0.87499999  0.12499969  0.37500000  1
  Ca  Ca23  1  0.87499999  0.62499969  0.37500000  1
  Ca  Ca24  1  0.37500001  0.37500031  0.37500000  1
  Ca  Ca25  1  0.37500001  0.87500031  0.37500000  1
  Ca  Ca26  1  0.87500001  0.37500031  0.37500000  1
  Ca  Ca27  1  0.87500001  0.87500031  0.37500000  1
  Ca  Ca28  1  0.12500003  0.37500029  0.45833334  1
  Ca  Ca29  1  0.12500003  0.87500029  0.45833334  1
  Ca  Ca30  1  0.62500003  0.37500029  0.45833334  1
  Ca  Ca31  1  0.62500003  0.87500029  0.45833334  1
  Rh  Rh32  1  0.37500000  0.50000005  0.61378860  1
  Rh  Rh33  1  0.37500000  0.99999995  0.61378862  1
  Rh  Rh34  1  0.87499998  0.50000003  0.61378862  1
  Rh  Rh35  1  0.87499997  0.99999994  0.61378863  1
  Rh  Rh36  1  0.12500000  0.25000000  0.54166666  1
  Rh  Rh37  1  0.12500000  0.75000000  0.54166666  1
  Rh  Rh38  1  0.62500000  0.25000000  0.54166666  1
  Rh  Rh39  1  0.62500000  0.75000000  0.54166666  1
  Rh  Rh40  1  0.37499999  0.49999999  0.45833334  1
  Rh  Rh41  1  0.37499999  0.99999999  0.45833334  1
  Rh  Rh42  1  0.87499999  0.49999999  0.45833334  1
  Rh  Rh43  1  0.87499999  0.99999999  0.45833334  1
  Rh  Rh44  1  0.12500000  0.25000000  0.37500000  1
  Rh  Rh45  1  0.12500000  0.75000000  0.37500000  1
  Rh  Rh46  1  0.62500000  0.25000000  0.37500000  1
  Rh  Rh47  1  0.62500000  0.75000000  0.37500000  1
  Zn  Zn48  1  0.12500000  0.00000000  0.54166667  1
  Zn  Zn49  1  0.12500000  0.50000000  0.54166667  1
  Zn  Zn50  1  0.62500000  0.00000000  0.54166667  1
  Zn  Zn51  1  0.62500000  0.50000000  0.54166667  1
  Zn  Zn52  1  0.37500001  0.24999994  0.62522616  1
  Zn  Zn53  1  0.37500001  0.75000007  0.62522633  1
  Zn  Zn54  1  0.87499999  0.25000007  0.62522613  1
  Zn  Zn55  1  0.87499999  0.74999998  0.62522634  1
  Zn  Zn56  1  0.12500000  0.00000000  0.37500000  1
  Zn  Zn57  1  0.12500000  0.50000000  0.37500000  1
  Zn  Zn58  1  0.62500000  0.00000000  0.37500000  1
  Zn  Zn59  1  0.62500000  0.50000000  0.37500000  1
  Zn  Zn60  1  0.37500000  0.25000000  0.45833333  1
  Zn  Zn61  1  0.37500000  0.75000000  0.45833333  1
  Zn  Zn62  1  0.87500000  0.25000000  0.45833333  1
  Zn  Zn63  1  0.87500000  0.75000000  0.45833333  1
