# generated using pymatgen
data_AlCuPd2
_symmetry_space_group_name_H-M   'P 1'
_cell_length_a   8.65841980
_cell_length_b   8.65842958
_cell_length_c   31.81308568
_cell_angle_alpha   89.99991834
_cell_angle_beta   89.99996645
_cell_angle_gamma   60.00003079
_symmetry_Int_Tables_number   1
_chemical_formula_structural   AlCuPd2
_chemical_formula_sum   'Al12 Cu12 Pd24'
_cell_volume   2065.44830301
_cell_formula_units_Z   12
loop_
 _symmetry_equiv_pos_site_id
 _symmetry_equiv_pos_as_xyz
  1  'x, y, z'
loop_
 _atom_site_type_symbol
 _atom_site_label
 _atom_site_symmetry_multiplicity
 _atom_site_fract_x
 _atom_site_fract_y
 _atom_site_fract_z
 _atom_site_occupancy
  Al  Al0  1  0.41666667  0.29166669  0.59890807  1
  Al  Al1  1  0.41666666  0.79166669  0.59890808  1
  Al  Al2  1  0.91666668  0.29166667  0.59890808  1
  Al  Al3  1  0.91666667  0.79166669  0.59890807  1
  Al  Al4  1  0.08333333  0.45833334  0.48611111  1
  Al  Al5  1  0.08333333  0.95833334  0.48611111  1
  Al  Al6  1  0.58333333  0.45833334  0.48611111  1
  Al  Al7  1  0.58333333  0.95833334  0.48611111  1
  Al  Al8  1  0.25000000  0.12500001  0.37500000  1
  Al  Al9  1  0.25000000  0.62500001  0.37500000  1
  Al  Al10  1  0.75000000  0.12500001  0.37500000  1
  Al  Al11  1  0.75000000  0.62500001  0.37500000  1
  Cu  Cu12  1  0.08333336  0.45833295  0.65043509  1
  Cu  Cu13  1  0.08333337  0.95833295  0.65043503  1
  Cu  Cu14  1  0.58333338  0.45833295  0.65043506  1
  Cu  Cu15  1  0.58333337  0.95833293  0.65043506  1
  Cu  Cu16  1  0.25000000  0.12500000  0.54166667  1
  Cu  Cu17  1  0.25000000  0.62500000  0.54166667  1
  Cu  Cu18  1  0.75000000  0.12500000  0.54166667  1
  Cu  Cu19  1  0.75000000  0.62500000  0.54166667  1
  Cu  Cu20  1  0.41666667  0.29166667  0.43055556  1
  Cu  Cu21  1  0.41666667  0.79166667  0.43055556  1
  Cu  Cu22  1  0.91666667  0.29166667  0.43055556  1
  Cu  Cu23  1  0.91666667  0.79166667  0.43055556  1
  Pd  Pd24  1  0.08333331  0.45833337  0.56944444  1
  Pd  Pd25  1  0.08333331  0.95833337  0.56944444  1
  Pd  Pd26  1  0.58333331  0.45833337  0.56944444  1
  Pd  Pd27  1  0.58333331  0.95833337  0.56944444  1
  Pd  Pd28  1  0.25000016  0.12500015  0.62310292  1
  Pd  Pd29  1  0.25000013  0.62500009  0.62310291  1
  Pd  Pd30  1  0.75000006  0.12500014  0.62310291  1
  Pd  Pd31  1  0.75000012  0.62500015  0.62310292  1
  Pd  Pd32  1  0.24999998  0.12500003  0.45833333  1
  Pd  Pd33  1  0.24999998  0.62500003  0.45833333  1
  Pd  Pd34  1  0.74999998  0.12500003  0.45833333  1
  Pd  Pd35  1  0.74999998  0.62500003  0.45833333  1
  Pd  Pd36  1  0.41666669  0.29166662  0.51388889  1
  Pd  Pd37  1  0.41666669  0.79166662  0.51388889  1
  Pd  Pd38  1  0.91666669  0.29166662  0.51388889  1
  Pd  Pd39  1  0.91666669  0.79166662  0.51388889  1
  Pd  Pd40  1  0.41666664  0.29166670  0.34722222  1
  Pd  Pd41  1  0.41666664  0.79166670  0.34722222  1
  Pd  Pd42  1  0.91666664  0.29166670  0.34722222  1
  Pd  Pd43  1  0.91666664  0.79166670  0.34722222  1
  Pd  Pd44  1  0.08333336  0.45833329  0.40277778  1
  Pd  Pd45  1  0.08333336  0.95833329  0.40277778  1
  Pd  Pd46  1  0.58333336  0.45833329  0.40277778  1
  Pd  Pd47  1  0.58333336  0.95833329  0.40277778  1
