# generated using pymatgen
data_InCuPd2
_symmetry_space_group_name_H-M   'P 1'
_cell_length_a   9.03492572
_cell_length_b   9.03492657
_cell_length_c   33.19644021
_cell_angle_alpha   90.00000184
_cell_angle_beta   90.00000013
_cell_angle_gamma   119.99999381
_symmetry_Int_Tables_number   1
_chemical_formula_structural   InCuPd2
_chemical_formula_sum   'In12 Cu12 Pd24'
_cell_volume   2346.77464575
_cell_formula_units_Z   12
loop_
 _symmetry_equiv_pos_site_id
 _symmetry_equiv_pos_as_xyz
  1  'x, y, z'
loop_
 _atom_site_type_symbol
 _atom_site_label
 _atom_site_symmetry_multiplicity
 _atom_site_fract_x
 _atom_site_fract_y
 _atom_site_fract_z
 _atom_site_occupancy
  Cu  Cu0  1  0.08333337  0.04166683  0.65099012  1
  Cu  Cu1  1  0.08333340  0.54166654  0.65099014  1
  Cu  Cu2  1  0.58333353  0.04166673  0.65099008  1
  Cu  Cu3  1  0.58333334  0.54166670  0.65099007  1
  Cu  Cu4  1  0.25000001  0.37500000  0.54653128  1
  Cu  Cu5  1  0.25000001  0.87500000  0.54653128  1
  Cu  Cu6  1  0.75000001  0.37500000  0.54653128  1
  Cu  Cu7  1  0.75000001  0.87500000  0.54653128  1
  Cu  Cu8  1  0.41666669  0.20833333  0.43542017  1
  Cu  Cu9  1  0.41666669  0.70833333  0.43542017  1
  Cu  Cu10  1  0.91666669  0.20833333  0.43542017  1
  Cu  Cu11  1  0.91666669  0.70833333  0.43542017  1
  In  In12  1  0.41666672  0.20833331  0.60543180  1
  In  In13  1  0.41666655  0.70833344  0.60543181  1
  In  In14  1  0.91666653  0.20833342  0.60543182  1
  In  In15  1  0.91666665  0.70833327  0.60543177  1
  In  In16  1  0.08333337  0.04166666  0.49097572  1
  In  In17  1  0.08333337  0.54166666  0.49097572  1
  In  In18  1  0.58333337  0.04166666  0.49097572  1
  In  In19  1  0.58333337  0.54166666  0.49097572  1
  In  In20  1  0.25000001  0.37500000  0.37986461  1
  In  In21  1  0.25000001  0.87500000  0.37986461  1
  In  In22  1  0.75000001  0.37500000  0.37986461  1
  In  In23  1  0.75000001  0.87500000  0.37986461  1
  Pd  Pd24  1  0.25000025  0.37499990  0.62871145  1
  Pd  Pd25  1  0.25000032  0.87499979  0.62871142  1
  Pd  Pd26  1  0.75000035  0.37499983  0.62871140  1
  Pd  Pd27  1  0.75000025  0.87499988  0.62871144  1
  Pd  Pd28  1  0.08333338  0.04166667  0.57430906  1
  Pd  Pd29  1  0.08333338  0.54166667  0.57430906  1
  Pd  Pd30  1  0.58333338  0.04166667  0.57430906  1
  Pd  Pd31  1  0.58333338  0.54166667  0.57430906  1
  Pd  Pd32  1  0.41666669  0.20833334  0.51875350  1
  Pd  Pd33  1  0.41666669  0.70833334  0.51875350  1
  Pd  Pd34  1  0.91666669  0.20833334  0.51875350  1
  Pd  Pd35  1  0.91666669  0.70833334  0.51875350  1
  Pd  Pd36  1  0.25000002  0.37500000  0.46319794  1
  Pd  Pd37  1  0.25000002  0.87500000  0.46319794  1
  Pd  Pd38  1  0.75000002  0.37500000  0.46319794  1
  Pd  Pd39  1  0.75000002  0.87500000  0.46319794  1
  Pd  Pd40  1  0.08333337  0.04166667  0.40764239  1
  Pd  Pd41  1  0.08333337  0.54166667  0.40764239  1
  Pd  Pd42  1  0.58333337  0.04166667  0.40764239  1
  Pd  Pd43  1  0.58333337  0.54166667  0.40764239  1
  Pd  Pd44  1  0.41666670  0.20833333  0.35208683  1
  Pd  Pd45  1  0.41666670  0.70833333  0.35208683  1
  Pd  Pd46  1  0.91666670  0.20833333  0.35208683  1
  Pd  Pd47  1  0.91666670  0.70833333  0.35208683  1
