# generated using pymatgen
data_Ca2ZnRh
_symmetry_space_group_name_H-M   'P 1'
_cell_length_a   10.16528143
_cell_length_b   10.16528208
_cell_length_c   33.32910413
_cell_angle_alpha   85.62696584
_cell_angle_beta   85.62698077
_cell_angle_gamma   59.99999066
_symmetry_Int_Tables_number   1
_chemical_formula_structural   Ca2ZnRh
_chemical_formula_sum   'Ca24 Zn12 Rh12'
_cell_volume   2971.00366074
_cell_formula_units_Z   12
loop_
 _symmetry_equiv_pos_site_id
 _symmetry_equiv_pos_as_xyz
  1  'x, y, z'
loop_
 _atom_site_type_symbol
 _atom_site_label
 _atom_site_symmetry_multiplicity
 _atom_site_fract_x
 _atom_site_fract_y
 _atom_site_fract_z
 _atom_site_occupancy
  Ca  Ca0  1  0.19531251  0.32031250  0.57812500  1
  Ca  Ca1  1  0.19531251  0.82031250  0.57812500  1
  Ca  Ca2  1  0.69531251  0.32031250  0.57812500  1
  Ca  Ca3  1  0.69531251  0.82031250  0.57812500  1
  Ca  Ca4  1  0.34971870  0.47470639  0.65171766  1
  Ca  Ca5  1  0.34971865  0.97470646  0.65171767  1
  Ca  Ca6  1  0.84971844  0.47470651  0.65171762  1
  Ca  Ca7  1  0.84971842  0.97470658  0.65171771  1
  Ca  Ca8  1  0.38281251  0.00781250  0.45312500  1
  Ca  Ca9  1  0.38281251  0.50781250  0.45312500  1
  Ca  Ca10  1  0.88281251  0.00781250  0.45312500  1
  Ca  Ca11  1  0.88281251  0.50781250  0.45312500  1
  Ca  Ca12  1  0.03906249  0.16406250  0.51562500  1
  Ca  Ca13  1  0.03906249  0.66406250  0.51562500  1
  Ca  Ca14  1  0.53906249  0.16406250  0.51562500  1
  Ca  Ca15  1  0.53906249  0.66406250  0.51562500  1
  Ca  Ca16  1  0.07031251  0.19531250  0.32812500  1
  Ca  Ca17  1  0.07031251  0.69531250  0.32812500  1
  Ca  Ca18  1  0.57031251  0.19531250  0.32812500  1
  Ca  Ca19  1  0.57031251  0.69531250  0.32812500  1
  Ca  Ca20  1  0.22656249  0.35156250  0.39062500  1
  Ca  Ca21  1  0.22656249  0.85156250  0.39062500  1
  Ca  Ca22  1  0.72656249  0.35156250  0.39062500  1
  Ca  Ca23  1  0.72656249  0.85156250  0.39062500  1
  Rh  Rh24  1  0.18233326  0.30730991  0.65600828  1
  Rh  Rh25  1  0.18233325  0.80730991  0.65600814  1
  Rh  Rh26  1  0.68233314  0.30730992  0.65600838  1
  Rh  Rh27  1  0.68233315  0.80730994  0.65600841  1
  Rh  Rh28  1  0.36718750  0.49218750  0.54687500  1
  Rh  Rh29  1  0.36718750  0.99218750  0.54687500  1
  Rh  Rh30  1  0.86718750  0.49218750  0.54687500  1
  Rh  Rh31  1  0.86718750  0.99218750  0.54687500  1
  Rh  Rh32  1  0.05468750  0.17968750  0.42187500  1
  Rh  Rh33  1  0.05468750  0.67968750  0.42187500  1
  Rh  Rh34  1  0.55468750  0.17968750  0.42187500  1
  Rh  Rh35  1  0.55468750  0.67968750  0.42187500  1
  Zn  Zn36  1  0.02343750  0.14843750  0.60937500  1
  Zn  Zn37  1  0.02343750  0.64843750  0.60937500  1
  Zn  Zn38  1  0.52343750  0.14843750  0.60937500  1
  Zn  Zn39  1  0.52343750  0.64843750  0.60937500  1
  Zn  Zn40  1  0.21093750  0.33593750  0.48437500  1
  Zn  Zn41  1  0.21093750  0.83593750  0.48437500  1
  Zn  Zn42  1  0.71093750  0.33593750  0.48437500  1
  Zn  Zn43  1  0.71093750  0.83593750  0.48437500  1
  Zn  Zn44  1  0.39843750  0.02343750  0.35937500  1
  Zn  Zn45  1  0.39843750  0.52343750  0.35937500  1
  Zn  Zn46  1  0.89843750  0.02343750  0.35937500  1
  Zn  Zn47  1  0.89843750  0.52343750  0.35937500  1
