# generated using pymatgen
data_Y2IrPd
_symmetry_space_group_name_H-M   'P 1'
_cell_length_a   9.88847733
_cell_length_b   9.88847664
_cell_length_c   34.96104129
_cell_angle_alpha   89.99999873
_cell_angle_beta   89.99999519
_cell_angle_gamma   90.00001686
_symmetry_Int_Tables_number   1
_chemical_formula_structural   Y2IrPd
_chemical_formula_sum   'Y32 Ir16 Pd16'
_cell_volume   3418.55973821
_cell_formula_units_Z   16
loop_
 _symmetry_equiv_pos_site_id
 _symmetry_equiv_pos_as_xyz
  1  'x, y, z'
loop_
 _atom_site_type_symbol
 _atom_site_label
 _atom_site_symmetry_multiplicity
 _atom_site_fract_x
 _atom_site_fract_y
 _atom_site_fract_z
 _atom_site_occupancy
  Ir  Ir0  1  0.00000000  0.50000000  0.36866012  1
  Ir  Ir1  1  0.00000000  1.00000000  0.36866012  1
  Ir  Ir2  1  0.50000000  0.50000000  0.36866012  1
  Ir  Ir3  1  0.50000000  1.00000000  0.36866012  1
  Ir  Ir4  1  0.24999986  0.25000000  0.46866011  1
  Ir  Ir5  1  0.24999986  0.75000000  0.46866011  1
  Ir  Ir6  1  0.74999986  0.25000000  0.46866011  1
  Ir  Ir7  1  0.74999986  0.75000000  0.46866011  1
  Ir  Ir8  1  0.00000000  0.50000000  0.56866012  1
  Ir  Ir9  1  0.00000000  1.00000000  0.56866012  1
  Ir  Ir10  1  0.50000000  0.50000000  0.56866012  1
  Ir  Ir11  1  0.50000000  1.00000000  0.56866012  1
  Ir  Ir12  1  0.24999993  0.25000000  0.65754832  1
  Ir  Ir13  1  0.24999993  0.74999997  0.65754912  1
  Ir  Ir14  1  0.74999995  0.24999992  0.65754905  1
  Ir  Ir15  1  0.74999995  0.75000006  0.65754834  1
  Pd  Pd16  1  0.00000000  0.50000000  0.46866012  1
  Pd  Pd17  1  0.00000000  1.00000000  0.46866012  1
  Pd  Pd18  1  0.50000000  0.50000000  0.46866012  1
  Pd  Pd19  1  0.50000000  1.00000000  0.46866012  1
  Pd  Pd20  1  0.24999985  0.25000000  0.36866011  1
  Pd  Pd21  1  0.24999985  0.75000000  0.36866011  1
  Pd  Pd22  1  0.74999985  0.25000000  0.36866011  1
  Pd  Pd23  1  0.74999985  0.75000000  0.36866011  1
  Pd  Pd24  1  0.99999997  0.50000002  0.66265461  1
  Pd  Pd25  1  0.99999985  0.99999996  0.66265460  1
  Pd  Pd26  1  0.49999983  0.50000002  0.66265458  1
  Pd  Pd27  1  0.49999996  0.99999996  0.66265460  1
  Pd  Pd28  1  0.24999985  0.25000000  0.56866011  1
  Pd  Pd29  1  0.24999985  0.75000000  0.56866011  1
  Pd  Pd30  1  0.74999985  0.25000000  0.56866011  1
  Pd  Pd31  1  0.74999985  0.75000000  0.56866011  1
  Y  Y32  1  0.49999985  0.25000000  0.31866013  1
  Y  Y33  1  0.49999985  0.75000000  0.31866013  1
  Y  Y34  1  0.99999985  0.25000000  0.31866013  1
  Y  Y35  1  0.99999985  0.75000000  0.31866013  1
  Y  Y36  1  0.24999971  0.00000000  0.31866014  1
  Y  Y37  1  0.24999971  0.50000000  0.31866014  1
  Y  Y38  1  0.74999971  0.00000000  0.31866014  1
  Y  Y39  1  0.74999971  0.50000000  0.31866014  1
  Y  Y40  1  0.25000000  0.50000000  0.41866008  1
  Y  Y41  1  0.25000000  1.00000000  0.41866008  1
  Y  Y42  1  0.75000000  0.50000000  0.41866008  1
  Y  Y43  1  0.75000000  1.00000000  0.41866008  1
  Y  Y44  1  0.49999985  0.25000001  0.41866007  1
  Y  Y45  1  0.49999985  0.75000001  0.41866007  1
  Y  Y46  1  0.99999985  0.25000001  0.41866007  1
  Y  Y47  1  0.99999985  0.75000001  0.41866007  1
  Y  Y48  1  0.49999985  0.25000000  0.51866013  1
  Y  Y49  1  0.49999985  0.75000000  0.51866013  1
  Y  Y50  1  0.99999985  0.25000000  0.51866013  1
  Y  Y51  1  0.99999985  0.75000000  0.51866013  1
  Y  Y52  1  0.24999971  0.00000000  0.51866014  1
  Y  Y53  1  0.24999971  0.50000000  0.51866014  1
  Y  Y54  1  0.74999971  0.00000000  0.51866014  1
  Y  Y55  1  0.74999971  0.50000000  0.51866014  1
  Y  Y56  1  0.25000005  0.49999753  0.62063471  1
  Y  Y57  1  0.24999985  0.00000246  0.62063475  1
  Y  Y58  1  0.74999986  0.50000246  0.62063473  1
  Y  Y59  1  0.75000008  0.99999754  0.62063470  1
  Y  Y60  1  0.49999740  0.25000011  0.62063472  1
  Y  Y61  1  0.50000233  0.74999988  0.62063471  1
  Y  Y62  1  0.00000241  0.24999990  0.62063473  1
  Y  Y63  1  0.99999749  0.75000008  0.62063472  1
