# generated using pymatgen
data_ZnCuPd2
_symmetry_space_group_name_H-M   'P 1'
_cell_length_a   8.67003204
_cell_length_b   8.67002976
_cell_length_c   36.78383397
_cell_angle_alpha   89.99999465
_cell_angle_beta   89.99998751
_cell_angle_gamma   90.00000740
_symmetry_Int_Tables_number   1
_chemical_formula_structural   ZnCuPd2
_chemical_formula_sum   'Zn16 Cu16 Pd32'
_cell_volume   2765.02004634
_cell_formula_units_Z   16
loop_
 _symmetry_equiv_pos_site_id
 _symmetry_equiv_pos_as_xyz
  1  'x, y, z'
loop_
 _atom_site_type_symbol
 _atom_site_label
 _atom_site_symmetry_multiplicity
 _atom_site_fract_x
 _atom_site_fract_y
 _atom_site_fract_z
 _atom_site_occupancy
  Cu  Cu0  1  0.50000000  0.50000000  0.39583333  1
  Cu  Cu1  1  0.50000000  1.00000000  0.39583333  1
  Cu  Cu2  1  1.00000000  0.50000000  0.39583333  1
  Cu  Cu3  1  1.00000000  1.00000000  0.39583333  1
  Cu  Cu4  1  0.25000000  0.25000000  0.47916667  1
  Cu  Cu5  1  0.25000000  0.75000000  0.47916667  1
  Cu  Cu6  1  0.75000000  0.25000000  0.47916667  1
  Cu  Cu7  1  0.75000000  0.75000000  0.47916667  1
  Cu  Cu8  1  0.50000000  0.50000000  0.56250000  1
  Cu  Cu9  1  0.50000000  1.00000000  0.56250000  1
  Cu  Cu10  1  1.00000000  0.50000000  0.56250000  1
  Cu  Cu11  1  1.00000000  1.00000000  0.56250000  1
  Cu  Cu12  1  0.24999998  0.25000000  0.64554989  1
  Cu  Cu13  1  0.24999998  0.74999997  0.64554992  1
  Cu  Cu14  1  0.74999995  0.25000000  0.64554991  1
  Cu  Cu15  1  0.74999995  0.74999996  0.64554992  1
  Pd  Pd16  1  0.24999998  0.49999998  0.35416671  1
  Pd  Pd17  1  0.24999998  0.99999998  0.35416671  1
  Pd  Pd18  1  0.74999998  0.49999998  0.35416671  1
  Pd  Pd19  1  0.74999998  0.99999998  0.35416671  1
  Pd  Pd20  1  0.00000001  0.25000003  0.35416671  1
  Pd  Pd21  1  0.00000001  0.75000003  0.35416671  1
  Pd  Pd22  1  0.50000001  0.25000003  0.35416671  1
  Pd  Pd23  1  0.50000001  0.75000003  0.35416671  1
  Pd  Pd24  1  0.00000001  0.24999999  0.43749995  1
  Pd  Pd25  1  0.00000001  0.74999999  0.43749995  1
  Pd  Pd26  1  0.50000001  0.24999999  0.43749995  1
  Pd  Pd27  1  0.50000001  0.74999999  0.43749995  1
  Pd  Pd28  1  0.25000002  0.00000001  0.43749996  1
  Pd  Pd29  1  0.25000002  0.50000001  0.43749996  1
  Pd  Pd30  1  0.75000002  0.00000001  0.43749996  1
  Pd  Pd31  1  0.75000002  0.50000001  0.43749996  1
  Pd  Pd32  1  0.24999998  0.49999998  0.52083337  1
  Pd  Pd33  1  0.24999998  0.99999998  0.52083337  1
  Pd  Pd34  1  0.74999998  0.49999998  0.52083337  1
  Pd  Pd35  1  0.74999998  0.99999998  0.52083337  1
  Pd  Pd36  1  0.00000001  0.25000003  0.52083338  1
  Pd  Pd37  1  0.00000001  0.75000003  0.52083338  1
  Pd  Pd38  1  0.50000001  0.25000003  0.52083338  1
  Pd  Pd39  1  0.50000001  0.75000003  0.52083338  1
  Pd  Pd40  1  0.00000004  0.24999994  0.60529612  1
  Pd  Pd41  1  0.00000001  0.75000004  0.60529608  1
  Pd  Pd42  1  0.49999994  0.24999999  0.60529613  1
  Pd  Pd43  1  0.49999998  0.75000000  0.60529608  1
  Pd  Pd44  1  0.24999993  0.00000008  0.60529610  1
  Pd  Pd45  1  0.24999997  0.49999993  0.60529610  1
  Pd  Pd46  1  0.75000008  0.00000004  0.60529608  1
  Pd  Pd47  1  0.75000003  0.49999996  0.60529609  1
  Zn  Zn48  1  0.50000000  0.50000000  0.47916667  1
  Zn  Zn49  1  0.50000000  1.00000000  0.47916667  1
  Zn  Zn50  1  1.00000000  0.50000000  0.47916667  1
  Zn  Zn51  1  1.00000000  1.00000000  0.47916667  1
  Zn  Zn52  1  0.25000000  0.25000000  0.39583334  1
  Zn  Zn53  1  0.25000000  0.75000000  0.39583334  1
  Zn  Zn54  1  0.75000000  0.25000000  0.39583334  1
  Zn  Zn55  1  0.75000000  0.75000000  0.39583334  1
  Zn  Zn56  1  0.49999995  0.49999996  0.64406771  1
  Zn  Zn57  1  0.49999995  0.00000000  0.64406771  1
  Zn  Zn58  1  0.99999997  0.49999996  0.64406770  1
  Zn  Zn59  1  0.99999997  0.00000000  0.64406770  1
  Zn  Zn60  1  0.25000000  0.25000000  0.56250000  1
  Zn  Zn61  1  0.25000000  0.75000000  0.56250000  1
  Zn  Zn62  1  0.75000000  0.25000000  0.56250000  1
  Zn  Zn63  1  0.75000000  0.75000000  0.56250000  1
