# generated using pymatgen
data_AlCuAu2
_symmetry_space_group_name_H-M   'P 1'
_cell_length_a   8.96854768
_cell_length_b   12.68344158
_cell_length_c   35.87418904
_cell_angle_alpha   89.99999494
_cell_angle_beta   89.99999489
_cell_angle_gamma   90.00000140
_symmetry_Int_Tables_number   1
_chemical_formula_structural   AlCuAu2
_chemical_formula_sum   'Al24 Cu24 Au48'
_cell_volume   4080.76256536
_cell_formula_units_Z   24
loop_
 _symmetry_equiv_pos_site_id
 _symmetry_equiv_pos_as_xyz
  1  'x, y, z'
loop_
 _atom_site_type_symbol
 _atom_site_label
 _atom_site_symmetry_multiplicity
 _atom_site_fract_x
 _atom_site_fract_y
 _atom_site_fract_z
 _atom_site_occupancy
  Al  Al0  1  0.12500000  0.00000000  0.34375000  1
  Al  Al1  1  0.12500000  0.50000000  0.34375000  1
  Al  Al2  1  0.62500000  0.00000000  0.34375000  1
  Al  Al3  1  0.62500000  0.50000000  0.34375000  1
  Al  Al4  1  0.37500000  0.25000000  0.40625000  1
  Al  Al5  1  0.37500000  0.75000000  0.40625000  1
  Al  Al6  1  0.87500000  0.25000000  0.40625000  1
  Al  Al7  1  0.87500000  0.75000000  0.40625000  1
  Al  Al8  1  0.12500000  0.00000000  0.46875000  1
  Al  Al9  1  0.12500000  0.50000000  0.46875000  1
  Al  Al10  1  0.62500000  0.00000000  0.46875000  1
  Al  Al11  1  0.62500000  0.50000000  0.46875000  1
  Al  Al12  1  0.37500000  0.25000000  0.53125000  1
  Al  Al13  1  0.37500000  0.75000000  0.53125000  1
  Al  Al14  1  0.87500000  0.25000000  0.53125000  1
  Al  Al15  1  0.87500000  0.75000000  0.53125000  1
  Al  Al16  1  0.12500000  0.00000000  0.59375000  1
  Al  Al17  1  0.12500000  0.50000000  0.59375000  1
  Al  Al18  1  0.62500000  0.00000000  0.59375000  1
  Al  Al19  1  0.62500000  0.50000000  0.59375000  1
  Al  Al20  1  0.37500002  0.24999996  0.65577328  1
  Al  Al21  1  0.37499993  0.75000002  0.65577327  1
  Al  Al22  1  0.87499998  0.25000002  0.65577328  1
  Al  Al23  1  0.87500005  0.74999998  0.65577327  1
  Au  Au24  1  0.37500001  0.12500008  0.34375000  1
  Au  Au25  1  0.37500001  0.62500008  0.34375000  1
  Au  Au26  1  0.87500001  0.12500008  0.34375000  1
  Au  Au27  1  0.87500001  0.62500008  0.34375000  1
  Au  Au28  1  0.12499999  0.12500009  0.40625000  1
  Au  Au29  1  0.12499999  0.62500009  0.40625000  1
  Au  Au30  1  0.62499999  0.12500009  0.40625000  1
  Au  Au31  1  0.62499999  0.62500009  0.40625000  1
  Au  Au32  1  0.12500000  0.37499991  0.40625000  1
  Au  Au33  1  0.12500000  0.87499991  0.40625000  1
  Au  Au34  1  0.62500000  0.37499991  0.40625000  1
  Au  Au35  1  0.62500000  0.87499991  0.40625000  1
  Au  Au36  1  0.37500000  0.37499992  0.34375000  1
  Au  Au37  1  0.37500000  0.87499992  0.34375000  1
  Au  Au38  1  0.87500000  0.37499992  0.34375000  1
  Au  Au39  1  0.87500000  0.87499992  0.34375000  1
  Au  Au40  1  0.37500001  0.12500008  0.46875000  1
  Au  Au41  1  0.37500001  0.62500008  0.46875000  1
  Au  Au42  1  0.87500001  0.12500008  0.46875000  1
  Au  Au43  1  0.87500001  0.62500008  0.46875000  1
  Au  Au44  1  0.12499999  0.12500009  0.53125000  1
  Au  Au45  1  0.12499999  0.62500009  0.53125000  1
  Au  Au46  1  0.62499999  0.12500009  0.53125000  1
  Au  Au47  1  0.62499999  0.62500009  0.53125000  1
  Au  Au48  1  0.12500000  0.37499991  0.53125000  1
  Au  Au49  1  0.12500000  0.87499991  0.53125000  1
  Au  Au50  1  0.62500000  0.37499991  0.53125000  1
  Au  Au51  1  0.62500000  0.87499991  0.53125000  1
  Au  Au52  1  0.37500000  0.37499992  0.46875000  1
  Au  Au53  1  0.37500000  0.87499992  0.46875000  1
  Au  Au54  1  0.87500000  0.37499992  0.46875000  1
  Au  Au55  1  0.87500000  0.87499992  0.46875000  1
  Au  Au56  1  0.37500001  0.12500008  0.59375000  1
  Au  Au57  1  0.37500001  0.62500008  0.59375000  1
  Au  Au58  1  0.87500001  0.12500008  0.59375000  1
  Au  Au59  1  0.87500001  0.62500008  0.59375000  1
  Au  Au60  1  0.12500074  0.12694310  0.65706466  1
  Au  Au61  1  0.12500013  0.62694337  0.65706460  1
  Au  Au62  1  0.62499924  0.12694316  0.65706465  1
  Au  Au63  1  0.62499988  0.62694318  0.65706466  1
  Au  Au64  1  0.12500013  0.37305685  0.65706468  1
  Au  Au65  1  0.12500071  0.87305668  0.65706460  1
  Au  Au66  1  0.62499984  0.37305679  0.65706464  1
  Au  Au67  1  0.62499928  0.87305686  0.65706467  1
  Au  Au68  1  0.37500000  0.37499992  0.59375000  1
  Au  Au69  1  0.37500000  0.87499992  0.59375000  1
  Au  Au70  1  0.87500000  0.37499992  0.59375000  1
  Au  Au71  1  0.87500000  0.87499992  0.59375000  1
  Cu  Cu72  1  0.37500000  0.50000000  0.40625000  1
  Cu  Cu73  1  0.37500000  1.00000000  0.40625000  1
  Cu  Cu74  1  0.87500000  0.50000000  0.40625000  1
  Cu  Cu75  1  0.87500000  1.00000000  0.40625000  1
  Cu  Cu76  1  0.12500000  0.25000000  0.34375000  1
  Cu  Cu77  1  0.12500000  0.75000000  0.34375000  1
  Cu  Cu78  1  0.62500000  0.25000000  0.34375000  1
  Cu  Cu79  1  0.62500000  0.75000000  0.34375000  1
  Cu  Cu80  1  0.37500000  0.50000000  0.53125000  1
  Cu  Cu81  1  0.37500000  1.00000000  0.53125000  1
  Cu  Cu82  1  0.87500000  0.50000000  0.53125000  1
  Cu  Cu83  1  0.87500000  1.00000000  0.53125000  1
  Cu  Cu84  1  0.12500000  0.25000000  0.46875000  1
  Cu  Cu85  1  0.12500000  0.75000000  0.46875000  1
  Cu  Cu86  1  0.62500000  0.25000000  0.46875000  1
  Cu  Cu87  1  0.62500000  0.75000000  0.46875000  1
  Cu  Cu88  1  0.37500000  0.50000000  0.65618238  1
  Cu  Cu89  1  0.37500000  0.00000000  0.65618234  1
  Cu  Cu90  1  0.87499999  0.50000000  0.65618226  1
  Cu  Cu91  1  0.87500001  0.99999999  0.65618232  1
  Cu  Cu92  1  0.12500000  0.25000000  0.59375000  1
  Cu  Cu93  1  0.12500000  0.75000000  0.59375000  1
  Cu  Cu94  1  0.62500000  0.25000000  0.59375000  1
  Cu  Cu95  1  0.62500000  0.75000000  0.59375000  1
