# generated using pymatgen
data_Y2IrPd
_symmetry_space_group_name_H-M   'P 1'
_cell_length_a   9.88847664
_cell_length_b   9.88847688
_cell_length_c   32.42154140
_cell_angle_alpha   85.62698059
_cell_angle_beta   85.62698020
_cell_angle_gamma   59.99999004
_symmetry_Int_Tables_number   1
_chemical_formula_structural   Y2IrPd
_chemical_formula_sum   'Y24 Ir12 Pd12'
_cell_volume   2734.84779198
_cell_formula_units_Z   12
loop_
 _symmetry_equiv_pos_site_id
 _symmetry_equiv_pos_as_xyz
  1  'x, y, z'
loop_
 _atom_site_type_symbol
 _atom_site_label
 _atom_site_symmetry_multiplicity
 _atom_site_fract_x
 _atom_site_fract_y
 _atom_site_fract_z
 _atom_site_occupancy
  Ir  Ir0  1  0.30676091  0.18176642  0.65941864  1
  Ir  Ir1  1  0.30676091  0.68176637  0.65941864  1
  Ir  Ir2  1  0.80676091  0.18176636  0.65941865  1
  Ir  Ir3  1  0.80676096  0.68176638  0.65941865  1
  Ir  Ir4  1  0.49218750  0.36718750  0.54687500  1
  Ir  Ir5  1  0.49218750  0.86718750  0.54687500  1
  Ir  Ir6  1  0.99218750  0.36718750  0.54687500  1
  Ir  Ir7  1  0.99218750  0.86718750  0.54687500  1
  Ir  Ir8  1  0.17968750  0.05468750  0.42187500  1
  Ir  Ir9  1  0.17968750  0.55468750  0.42187500  1
  Ir  Ir10  1  0.67968750  0.05468750  0.42187500  1
  Ir  Ir11  1  0.67968750  0.55468750  0.42187500  1
  Pd  Pd12  1  0.14843750  0.02343750  0.60937500  1
  Pd  Pd13  1  0.14843750  0.52343750  0.60937500  1
  Pd  Pd14  1  0.64843750  0.02343750  0.60937500  1
  Pd  Pd15  1  0.64843750  0.52343750  0.60937500  1
  Pd  Pd16  1  0.33593750  0.21093750  0.48437500  1
  Pd  Pd17  1  0.33593750  0.71093750  0.48437500  1
  Pd  Pd18  1  0.83593750  0.21093750  0.48437500  1
  Pd  Pd19  1  0.83593750  0.71093750  0.48437500  1
  Pd  Pd20  1  0.02343750  0.39843750  0.35937500  1
  Pd  Pd21  1  0.02343750  0.89843750  0.35937500  1
  Pd  Pd22  1  0.52343750  0.39843750  0.35937500  1
  Pd  Pd23  1  0.52343750  0.89843750  0.35937500  1
  Y  Y24  1  0.32031250  0.19531250  0.57812500  1
  Y  Y25  1  0.32031250  0.69531250  0.57812500  1
  Y  Y26  1  0.82031250  0.19531250  0.57812500  1
  Y  Y27  1  0.82031250  0.69531250  0.57812500  1
  Y  Y28  1  0.47577031  0.35077412  0.64536569  1
  Y  Y29  1  0.47577027  0.85077426  0.64536569  1
  Y  Y30  1  0.97577017  0.35077420  0.64536570  1
  Y  Y31  1  0.97577011  0.85077430  0.64536570  1
  Y  Y32  1  0.00781250  0.38281250  0.45312500  1
  Y  Y33  1  0.00781250  0.88281250  0.45312500  1
  Y  Y34  1  0.50781250  0.38281250  0.45312500  1
  Y  Y35  1  0.50781250  0.88281250  0.45312500  1
  Y  Y36  1  0.16406250  0.03906250  0.51562500  1
  Y  Y37  1  0.16406250  0.53906250  0.51562500  1
  Y  Y38  1  0.66406250  0.03906250  0.51562500  1
  Y  Y39  1  0.66406250  0.53906250  0.51562500  1
  Y  Y40  1  0.19531250  0.07031250  0.32812500  1
  Y  Y41  1  0.19531250  0.57031250  0.32812500  1
  Y  Y42  1  0.69531250  0.07031250  0.32812500  1
  Y  Y43  1  0.69531250  0.57031250  0.32812500  1
  Y  Y44  1  0.35156250  0.22656250  0.39062500  1
  Y  Y45  1  0.35156250  0.72656250  0.39062500  1
  Y  Y46  1  0.85156250  0.22656250  0.39062500  1
  Y  Y47  1  0.85156250  0.72656250  0.39062500  1
