# generated using pymatgen
data_AlCuAu2
_symmetry_space_group_name_H-M   'P 1'
_cell_length_a   8.96854695
_cell_length_b   8.96854751
_cell_length_c   32.95254850
_cell_angle_alpha   90.00000128
_cell_angle_beta   89.99999534
_cell_angle_gamma   119.99999665
_symmetry_Int_Tables_number   1
_chemical_formula_structural   AlCuAu2
_chemical_formula_sum   'Al12 Cu12 Au24'
_cell_volume   2295.42894286
_cell_formula_units_Z   12
loop_
 _symmetry_equiv_pos_site_id
 _symmetry_equiv_pos_as_xyz
  1  'x, y, z'
loop_
 _atom_site_type_symbol
 _atom_site_label
 _atom_site_symmetry_multiplicity
 _atom_site_fract_x
 _atom_site_fract_y
 _atom_site_fract_z
 _atom_site_occupancy
  Al  Al0  1  0.25000000  0.37500000  0.37500000  1
  Al  Al1  1  0.25000000  0.87500000  0.37500000  1
  Al  Al2  1  0.75000000  0.37500000  0.37500000  1
  Al  Al3  1  0.75000000  0.87500000  0.37500000  1
  Al  Al4  1  0.08333333  0.04166666  0.48611111  1
  Al  Al5  1  0.08333333  0.54166666  0.48611111  1
  Al  Al6  1  0.58333333  0.04166666  0.48611111  1
  Al  Al7  1  0.58333333  0.54166666  0.48611111  1
  Al  Al8  1  0.41666709  0.20833336  0.60875869  1
  Al  Al9  1  0.41666712  0.70833295  0.60875868  1
  Al  Al10  1  0.91666667  0.20833291  0.60875864  1
  Al  Al11  1  0.91666642  0.70833274  0.60875869  1
  Au  Au12  1  0.41666667  0.20833333  0.34722222  1
  Au  Au13  1  0.41666667  0.70833333  0.34722222  1
  Au  Au14  1  0.91666667  0.20833333  0.34722222  1
  Au  Au15  1  0.91666667  0.70833333  0.34722222  1
  Au  Au16  1  0.08333334  0.04166667  0.40277778  1
  Au  Au17  1  0.08333334  0.54166667  0.40277778  1
  Au  Au18  1  0.58333334  0.04166667  0.40277778  1
  Au  Au19  1  0.58333334  0.54166667  0.40277778  1
  Au  Au20  1  0.25000000  0.37500000  0.45833333  1
  Au  Au21  1  0.25000000  0.87500000  0.45833333  1
  Au  Au22  1  0.75000000  0.37500000  0.45833333  1
  Au  Au23  1  0.75000000  0.87500000  0.45833333  1
  Au  Au24  1  0.41666667  0.20833334  0.51388889  1
  Au  Au25  1  0.41666667  0.70833334  0.51388889  1
  Au  Au26  1  0.91666667  0.20833334  0.51388889  1
  Au  Au27  1  0.91666667  0.70833334  0.51388889  1
  Au  Au28  1  0.08333333  0.04166666  0.56944445  1
  Au  Au29  1  0.08333333  0.54166666  0.56944445  1
  Au  Au30  1  0.58333333  0.04166666  0.56944445  1
  Au  Au31  1  0.58333333  0.54166666  0.56944445  1
  Au  Au32  1  0.25000178  0.37499962  0.62861467  1
  Au  Au33  1  0.25000093  0.87499964  0.62861449  1
  Au  Au34  1  0.75000004  0.37499954  0.62861452  1
  Au  Au35  1  0.75000034  0.87499843  0.62861461  1
  Cu  Cu36  1  0.41666666  0.20833333  0.43055556  1
  Cu  Cu37  1  0.41666666  0.70833333  0.43055556  1
  Cu  Cu38  1  0.91666666  0.20833333  0.43055556  1
  Cu  Cu39  1  0.91666666  0.70833333  0.43055556  1
  Cu  Cu40  1  0.25000000  0.37500000  0.54166667  1
  Cu  Cu41  1  0.25000000  0.87500000  0.54166667  1
  Cu  Cu42  1  0.75000000  0.37500000  0.54166667  1
  Cu  Cu43  1  0.75000000  0.87500000  0.54166667  1
  Cu  Cu44  1  0.08333414  0.04166568  0.64755865  1
  Cu  Cu45  1  0.08333435  0.54166588  0.64755868  1
  Cu  Cu46  1  0.58333420  0.04166551  0.64755854  1
  Cu  Cu47  1  0.58333420  0.54166587  0.64755812  1
