# generated using pymatgen
data_Sc2ZnPt
_symmetry_space_group_name_H-M   'P 1'
_cell_length_a   9.48008830
_cell_length_b   9.48008783
_cell_length_c   34.83205790
_cell_angle_alpha   89.99998876
_cell_angle_beta   89.99998126
_cell_angle_gamma   60.00000511
_symmetry_Int_Tables_number   1
_chemical_formula_structural   Sc2ZnPt
_chemical_formula_sum   'Sc24 Zn12 Pt12'
_cell_volume   2711.03129499
_cell_formula_units_Z   12
loop_
 _symmetry_equiv_pos_site_id
 _symmetry_equiv_pos_as_xyz
  1  'x, y, z'
loop_
 _atom_site_type_symbol
 _atom_site_label
 _atom_site_symmetry_multiplicity
 _atom_site_fract_x
 _atom_site_fract_y
 _atom_site_fract_z
 _atom_site_occupancy
  Pt  Pt0  1  0.41668910  0.04165548  0.62385559  1
  Pt  Pt1  1  0.41668906  0.54165546  0.62385530  1
  Pt  Pt2  1  0.91669018  0.04165475  0.62385562  1
  Pt  Pt3  1  0.91668984  0.54165520  0.62385563  1
  Pt  Pt4  1  0.24999992  0.37500002  0.52462566  1
  Pt  Pt5  1  0.24999992  0.87500002  0.52462566  1
  Pt  Pt6  1  0.74999992  0.37500002  0.52462566  1
  Pt  Pt7  1  0.74999992  0.87500002  0.52462566  1
  Pt  Pt8  1  0.08333322  0.20833335  0.41351451  1
  Pt  Pt9  1  0.08333322  0.70833335  0.41351451  1
  Pt  Pt10  1  0.58333322  0.20833335  0.41351451  1
  Pt  Pt11  1  0.58333322  0.70833335  0.41351451  1
  Sc  Sc12  1  0.25004413  0.37497799  0.61176097  1
  Sc  Sc13  1  0.25004424  0.87497825  0.61176067  1
  Sc  Sc14  1  0.75004500  0.37497800  0.61176136  1
  Sc  Sc15  1  0.75004518  0.87497836  0.61176059  1
  Sc  Sc16  1  0.41666660  0.04166663  0.55240334  1
  Sc  Sc17  1  0.41666660  0.54166663  0.55240334  1
  Sc  Sc18  1  0.91666660  0.04166663  0.55240334  1
  Sc  Sc19  1  0.91666660  0.54166663  0.55240334  1
  Sc  Sc20  1  0.08333328  0.20833336  0.49684783  1
  Sc  Sc21  1  0.08333328  0.70833336  0.49684783  1
  Sc  Sc22  1  0.58333328  0.20833336  0.49684783  1
  Sc  Sc23  1  0.58333328  0.70833336  0.49684783  1
  Sc  Sc24  1  0.25000000  0.37499996  0.44129232  1
  Sc  Sc25  1  0.25000000  0.87499996  0.44129232  1
  Sc  Sc26  1  0.75000000  0.37499996  0.44129232  1
  Sc  Sc27  1  0.75000000  0.87499996  0.44129232  1
  Sc  Sc28  1  0.41666658  0.04166670  0.38573668  1
  Sc  Sc29  1  0.41666658  0.54166670  0.38573668  1
  Sc  Sc30  1  0.91666658  0.04166670  0.38573668  1
  Sc  Sc31  1  0.91666658  0.54166670  0.38573668  1
  Sc  Sc32  1  0.08333330  0.20833329  0.33018117  1
  Sc  Sc33  1  0.08333330  0.70833329  0.33018117  1
  Sc  Sc34  1  0.58333330  0.20833329  0.33018117  1
  Sc  Sc35  1  0.58333330  0.70833329  0.33018117  1
  Zn  Zn36  1  0.08344116  0.20827996  0.58824938  1
  Zn  Zn37  1  0.08344134  0.70827966  0.58824942  1
  Zn  Zn38  1  0.58344167  0.20827961  0.58824933  1
  Zn  Zn39  1  0.58344159  0.70827958  0.58824932  1
  Zn  Zn40  1  0.41666660  0.04166666  0.46907002  1
  Zn  Zn41  1  0.41666660  0.54166666  0.46907002  1
  Zn  Zn42  1  0.91666660  0.04166666  0.46907002  1
  Zn  Zn43  1  0.91666660  0.54166666  0.46907002  1
  Zn  Zn44  1  0.25000000  0.37500000  0.35795899  1
  Zn  Zn45  1  0.25000000  0.87500000  0.35795899  1
  Zn  Zn46  1  0.75000000  0.37500000  0.35795899  1
  Zn  Zn47  1  0.75000000  0.87500000  0.35795899  1
