# generated using pymatgen
data_Sc2CuTc
_symmetry_space_group_name_H-M   'P 1'
_cell_length_a   9.25631769
_cell_length_b   13.09040544
_cell_length_c   37.02528068
_cell_angle_alpha   89.99997461
_cell_angle_beta   89.99995933
_cell_angle_gamma   89.99998105
_symmetry_Int_Tables_number   1
_chemical_formula_structural   Sc2CuTc
_chemical_formula_sum   'Sc48 Cu24 Tc24'
_cell_volume   4486.31443690
_cell_formula_units_Z   24
loop_
 _symmetry_equiv_pos_site_id
 _symmetry_equiv_pos_as_xyz
  1  'x, y, z'
loop_
 _atom_site_type_symbol
 _atom_site_label
 _atom_site_symmetry_multiplicity
 _atom_site_fract_x
 _atom_site_fract_y
 _atom_site_fract_z
 _atom_site_occupancy
  Cu  Cu0  1  0.37499962  0.50000004  0.65232740  1
  Cu  Cu1  1  0.37500005  0.99999981  0.65232730  1
  Cu  Cu2  1  0.87500031  0.49999997  0.65232755  1
  Cu  Cu3  1  0.87499990  0.99999992  0.65232743  1
  Cu  Cu4  1  0.12499997  0.25000002  0.59375000  1
  Cu  Cu5  1  0.12499997  0.75000002  0.59375000  1
  Cu  Cu6  1  0.62499997  0.25000002  0.59375000  1
  Cu  Cu7  1  0.62499997  0.75000002  0.59375000  1
  Cu  Cu8  1  0.37499997  0.49999997  0.53125000  1
  Cu  Cu9  1  0.37499997  0.99999997  0.53125000  1
  Cu  Cu10  1  0.87499997  0.49999997  0.53125000  1
  Cu  Cu11  1  0.87499997  0.99999997  0.53125000  1
  Cu  Cu12  1  0.12499997  0.25000002  0.46875000  1
  Cu  Cu13  1  0.12499997  0.75000002  0.46875000  1
  Cu  Cu14  1  0.62499997  0.25000002  0.46875000  1
  Cu  Cu15  1  0.62499997  0.75000002  0.46875000  1
  Cu  Cu16  1  0.37499997  0.49999997  0.40625000  1
  Cu  Cu17  1  0.37499997  0.99999997  0.40625000  1
  Cu  Cu18  1  0.87499997  0.49999997  0.40625000  1
  Cu  Cu19  1  0.87499997  0.99999997  0.40625000  1
  Cu  Cu20  1  0.12499997  0.25000002  0.34375000  1
  Cu  Cu21  1  0.12499997  0.75000002  0.34375000  1
  Cu  Cu22  1  0.62499997  0.25000002  0.34375000  1
  Cu  Cu23  1  0.62499997  0.75000002  0.34375000  1
  Sc  Sc24  1  0.37500004  0.12499964  0.59375000  1
  Sc  Sc25  1  0.37500004  0.62499964  0.59375000  1
  Sc  Sc26  1  0.87500004  0.12499964  0.59375000  1
  Sc  Sc27  1  0.87500004  0.62499964  0.59375000  1
  Sc  Sc28  1  0.12499438  0.12791671  0.65497880  1
  Sc  Sc29  1  0.12499870  0.62790841  0.65497812  1
  Sc  Sc30  1  0.62500448  0.12791526  0.65497859  1
  Sc  Sc31  1  0.62500171  0.62790933  0.65497804  1
  Sc  Sc32  1  0.12499699  0.37208551  0.65497878  1
  Sc  Sc33  1  0.12499738  0.87208870  0.65497874  1
  Sc  Sc34  1  0.62500432  0.37208447  0.65497869  1
  Sc  Sc35  1  0.62500124  0.87209060  0.65497839  1
  Sc  Sc36  1  0.37500004  0.37500031  0.59375000  1
  Sc  Sc37  1  0.37500004  0.87500031  0.59375000  1
  Sc  Sc38  1  0.87500004  0.37500031  0.59375000  1
  Sc  Sc39  1  0.87500004  0.87500031  0.59375000  1
  Sc  Sc40  1  0.37500004  0.12499964  0.46875000  1
  Sc  Sc41  1  0.37500004  0.62499964  0.46875000  1
  Sc  Sc42  1  0.87500004  0.12499964  0.46875000  1
  Sc  Sc43  1  0.87500004  0.62499964  0.46875000  1
  Sc  Sc44  1  0.12499999  0.12499965  0.53125000  1
  Sc  Sc45  1  0.12499999  0.62499965  0.53125000  1
  Sc  Sc46  1  0.62499999  0.12499965  0.53125000  1
  Sc  Sc47  1  0.62499999  0.62499965  0.53125000  1
  Sc  Sc48  1  0.12499998  0.37500033  0.53125001  1
  Sc  Sc49  1  0.12499998  0.87500033  0.53125001  1
  Sc  Sc50  1  0.62499998  0.37500033  0.53125001  1
  Sc  Sc51  1  0.62499998  0.87500033  0.53125001  1
  Sc  Sc52  1  0.37500004  0.37500031  0.46875000  1
  Sc  Sc53  1  0.37500004  0.87500031  0.46875000  1
  Sc  Sc54  1  0.87500004  0.37500031  0.46875000  1
  Sc  Sc55  1  0.87500004  0.87500031  0.46875000  1
  Sc  Sc56  1  0.37500004  0.12499964  0.34375000  1
  Sc  Sc57  1  0.37500004  0.62499964  0.34375000  1
  Sc  Sc58  1  0.87500004  0.12499964  0.34375000  1
  Sc  Sc59  1  0.87500004  0.62499964  0.34375000  1
  Sc  Sc60  1  0.12499999  0.12499965  0.40625000  1
  Sc  Sc61  1  0.12499999  0.62499965  0.40625000  1
  Sc  Sc62  1  0.62499999  0.12499965  0.40625000  1
  Sc  Sc63  1  0.62499999  0.62499965  0.40625000  1
  Sc  Sc64  1  0.12499998  0.37500033  0.40625001  1
  Sc  Sc65  1  0.12499998  0.87500033  0.40625001  1
  Sc  Sc66  1  0.62499998  0.37500033  0.40625001  1
  Sc  Sc67  1  0.62499998  0.87500033  0.40625001  1
  Sc  Sc68  1  0.37500004  0.37500031  0.34375000  1
  Sc  Sc69  1  0.37500004  0.87500031  0.34375000  1
  Sc  Sc70  1  0.87500004  0.37500031  0.34375000  1
  Sc  Sc71  1  0.87500004  0.87500031  0.34375000  1
  Tc  Tc72  1  0.12499995  0.49999997  0.59375000  1
  Tc  Tc73  1  0.12499995  0.99999997  0.59375000  1
  Tc  Tc74  1  0.62499995  0.49999997  0.59375000  1
  Tc  Tc75  1  0.62499995  0.99999997  0.59375000  1
  Tc  Tc76  1  0.37499972  0.24999983  0.65310829  1
  Tc  Tc77  1  0.37499958  0.74999996  0.65310895  1
  Tc  Tc78  1  0.87500039  0.24999981  0.65310800  1
  Tc  Tc79  1  0.87500028  0.75000016  0.65310923  1
  Tc  Tc80  1  0.12499995  0.49999997  0.46875000  1
  Tc  Tc81  1  0.12499995  0.99999997  0.46875000  1
  Tc  Tc82  1  0.62499995  0.49999997  0.46875000  1
  Tc  Tc83  1  0.62499995  0.99999997  0.46875000  1
  Tc  Tc84  1  0.37500006  0.25000012  0.53124999  1
  Tc  Tc85  1  0.37500006  0.75000012  0.53124999  1
  Tc  Tc86  1  0.87500006  0.25000012  0.53124999  1
  Tc  Tc87  1  0.87500006  0.75000012  0.53124999  1
  Tc  Tc88  1  0.12499995  0.49999997  0.34375000  1
  Tc  Tc89  1  0.12499995  0.99999997  0.34375000  1
  Tc  Tc90  1  0.62499995  0.49999997  0.34375000  1
  Tc  Tc91  1  0.62499995  0.99999997  0.34375000  1
  Tc  Tc92  1  0.37500006  0.25000012  0.40624999  1
  Tc  Tc93  1  0.37500006  0.75000012  0.40624999  1
  Tc  Tc94  1  0.87500006  0.25000012  0.40624999  1
  Tc  Tc95  1  0.87500006  0.75000012  0.40624999  1
