# generated using pymatgen
data_Sc2AgIr
_symmetry_space_group_name_H-M   'P 1'
_cell_length_a   9.47456991
_cell_length_b   9.47457238
_cell_length_c   33.49767503
_cell_angle_alpha   89.99998893
_cell_angle_beta   89.99998603
_cell_angle_gamma   89.99998506
_symmetry_Int_Tables_number   1
_chemical_formula_structural   Sc2AgIr
_chemical_formula_sum   'Sc32 Ag16 Ir16'
_cell_volume   3007.00248905
_cell_formula_units_Z   16
loop_
 _symmetry_equiv_pos_site_id
 _symmetry_equiv_pos_as_xyz
  1  'x, y, z'
loop_
 _atom_site_type_symbol
 _atom_site_label
 _atom_site_symmetry_multiplicity
 _atom_site_fract_x
 _atom_site_fract_y
 _atom_site_fract_z
 _atom_site_occupancy
  Ag  Ag0  1  0.00000003  0.49999999  0.37500000  1
  Ag  Ag1  1  0.00000003  0.99999999  0.37500000  1
  Ag  Ag2  1  0.50000003  0.49999999  0.37500000  1
  Ag  Ag3  1  0.50000003  0.99999999  0.37500000  1
  Ag  Ag4  1  0.24999998  0.24999996  0.47500001  1
  Ag  Ag5  1  0.24999998  0.74999996  0.47500001  1
  Ag  Ag6  1  0.74999998  0.24999996  0.47500001  1
  Ag  Ag7  1  0.74999998  0.74999996  0.47500001  1
  Ag  Ag8  1  0.00000003  0.49999999  0.57500000  1
  Ag  Ag9  1  0.00000003  0.99999999  0.57500000  1
  Ag  Ag10  1  0.50000003  0.49999999  0.57500000  1
  Ag  Ag11  1  0.50000003  0.99999999  0.57500000  1
  Ag  Ag12  1  0.24999998  0.25000021  0.68334399  1
  Ag  Ag13  1  0.24999994  0.74999977  0.68334402  1
  Ag  Ag14  1  0.74999989  0.25000010  0.68334401  1
  Ag  Ag15  1  0.74999993  0.74999978  0.68334406  1
  Ir  Ir16  1  0.49999998  0.00000003  0.47499997  1
  Ir  Ir17  1  0.49999998  0.50000003  0.47499997  1
  Ir  Ir18  1  0.99999998  0.00000003  0.47499997  1
  Ir  Ir19  1  0.99999998  0.50000003  0.47499997  1
  Ir  Ir20  1  0.24999993  0.25000004  0.37500000  1
  Ir  Ir21  1  0.24999993  0.75000004  0.37500000  1
  Ir  Ir22  1  0.74999993  0.25000004  0.37500000  1
  Ir  Ir23  1  0.74999993  0.75000004  0.37500000  1
  Ir  Ir24  1  0.50000009  0.00000031  0.66475560  1
  Ir  Ir25  1  0.49999968  0.49999960  0.66475538  1
  Ir  Ir26  1  0.00000022  0.00000016  0.66475497  1
  Ir  Ir27  1  0.99999985  0.50000000  0.66475594  1
  Ir  Ir28  1  0.24999993  0.25000004  0.57500000  1
  Ir  Ir29  1  0.24999993  0.75000004  0.57500000  1
  Ir  Ir30  1  0.74999993  0.25000004  0.57500000  1
  Ir  Ir31  1  0.74999993  0.75000004  0.57500000  1
  Sc  Sc32  1  0.50000000  0.24999997  0.32500006  1
  Sc  Sc33  1  0.50000000  0.74999997  0.32500006  1
  Sc  Sc34  1  1.00000000  0.24999997  0.32500006  1
  Sc  Sc35  1  1.00000000  0.74999997  0.32500006  1
  Sc  Sc36  1  0.25000004  0.00000000  0.32500005  1
  Sc  Sc37  1  0.25000004  0.50000000  0.32500005  1
  Sc  Sc38  1  0.75000004  0.00000000  0.32500005  1
  Sc  Sc39  1  0.75000004  0.50000000  0.32500005  1
  Sc  Sc40  1  0.25000002  0.00000000  0.42499995  1
  Sc  Sc41  1  0.25000002  0.50000000  0.42499995  1
  Sc  Sc42  1  0.75000002  0.00000000  0.42499995  1
  Sc  Sc43  1  0.75000002  0.50000000  0.42499995  1
  Sc  Sc44  1  0.00000003  0.25000001  0.42499996  1
  Sc  Sc45  1  0.00000003  0.75000001  0.42499996  1
  Sc  Sc46  1  0.50000003  0.25000001  0.42499996  1
  Sc  Sc47  1  0.50000003  0.75000001  0.42499996  1
  Sc  Sc48  1  0.50000000  0.24999997  0.52500006  1
  Sc  Sc49  1  0.50000000  0.74999997  0.52500006  1
  Sc  Sc50  1  1.00000000  0.24999997  0.52500006  1
  Sc  Sc51  1  1.00000000  0.74999997  0.52500006  1
  Sc  Sc52  1  0.25000004  0.00000000  0.52500005  1
  Sc  Sc53  1  0.25000004  0.50000000  0.52500005  1
  Sc  Sc54  1  0.75000004  0.00000000  0.52500005  1
  Sc  Sc55  1  0.75000004  0.50000000  0.52500005  1
  Sc  Sc56  1  0.24999782  0.00000022  0.62780309  1
  Sc  Sc57  1  0.25000193  0.49999960  0.62780307  1
  Sc  Sc58  1  0.75000210  0.00000006  0.62780312  1
  Sc  Sc59  1  0.74999809  0.50000003  0.62780316  1
  Sc  Sc60  1  0.99999992  0.24999853  0.62780287  1
  Sc  Sc61  1  0.99999952  0.75000147  0.62780284  1
  Sc  Sc62  1  0.50000023  0.25000228  0.62780298  1
  Sc  Sc63  1  0.49999997  0.74999774  0.62780306  1
