# generated using pymatgen
data_Sr2AgPt
_symmetry_space_group_name_H-M   'P 1'
_cell_length_a   10.90181774
_cell_length_b   10.90181989
_cell_length_c   35.74399245
_cell_angle_alpha   85.62700734
_cell_angle_beta   85.62700485
_cell_angle_gamma   59.99998249
_symmetry_Int_Tables_number   1
_chemical_formula_structural   Sr2AgPt
_chemical_formula_sum   'Sr24 Ag12 Pt12'
_cell_volume   3664.72739155
_cell_formula_units_Z   12
loop_
 _symmetry_equiv_pos_site_id
 _symmetry_equiv_pos_as_xyz
  1  'x, y, z'
loop_
 _atom_site_type_symbol
 _atom_site_label
 _atom_site_symmetry_multiplicity
 _atom_site_fract_x
 _atom_site_fract_y
 _atom_site_fract_z
 _atom_site_occupancy
  Ag  Ag0  1  0.02343750  0.39843750  0.35937500  1
  Ag  Ag1  1  0.02343750  0.89843750  0.35937500  1
  Ag  Ag2  1  0.52343750  0.39843750  0.35937500  1
  Ag  Ag3  1  0.52343750  0.89843750  0.35937500  1
  Ag  Ag4  1  0.33593750  0.21093750  0.48437500  1
  Ag  Ag5  1  0.33593750  0.71093750  0.48437500  1
  Ag  Ag6  1  0.83593750  0.21093750  0.48437500  1
  Ag  Ag7  1  0.83593750  0.71093750  0.48437500  1
  Ag  Ag8  1  0.14843750  0.02343750  0.60937500  1
  Ag  Ag9  1  0.14843750  0.52343750  0.60937500  1
  Ag  Ag10  1  0.64843750  0.02343750  0.60937500  1
  Ag  Ag11  1  0.64843750  0.52343750  0.60937500  1
  Pt  Pt12  1  0.17968749  0.05468749  0.42187500  1
  Pt  Pt13  1  0.17968749  0.55468749  0.42187500  1
  Pt  Pt14  1  0.67968749  0.05468749  0.42187500  1
  Pt  Pt15  1  0.67968749  0.55468749  0.42187500  1
  Pt  Pt16  1  0.49218749  0.36718749  0.54687500  1
  Pt  Pt17  1  0.49218749  0.86718749  0.54687500  1
  Pt  Pt18  1  0.99218749  0.36718749  0.54687500  1
  Pt  Pt19  1  0.99218749  0.86718749  0.54687500  1
  Pt  Pt20  1  0.30690781  0.18190779  0.65854738  1
  Pt  Pt21  1  0.30690782  0.68190779  0.65854740  1
  Pt  Pt22  1  0.80690782  0.18190780  0.65854740  1
  Pt  Pt23  1  0.80690781  0.68190778  0.65854740  1
  Sr  Sr24  1  0.35156254  0.22656248  0.39062501  1
  Sr  Sr25  1  0.35156254  0.72656248  0.39062501  1
  Sr  Sr26  1  0.85156254  0.22656248  0.39062501  1
  Sr  Sr27  1  0.85156254  0.72656248  0.39062501  1
  Sr  Sr28  1  0.19531246  0.07031252  0.32812499  1
  Sr  Sr29  1  0.19531246  0.57031252  0.32812499  1
  Sr  Sr30  1  0.69531246  0.07031252  0.32812499  1
  Sr  Sr31  1  0.69531246  0.57031252  0.32812499  1
  Sr  Sr32  1  0.16406254  0.03906248  0.51562501  1
  Sr  Sr33  1  0.16406254  0.53906248  0.51562501  1
  Sr  Sr34  1  0.66406254  0.03906248  0.51562501  1
  Sr  Sr35  1  0.66406254  0.53906248  0.51562501  1
  Sr  Sr36  1  0.00781246  0.38281252  0.45312499  1
  Sr  Sr37  1  0.00781246  0.88281252  0.45312499  1
  Sr  Sr38  1  0.50781246  0.38281252  0.45312499  1
  Sr  Sr39  1  0.50781246  0.88281252  0.45312499  1
  Sr  Sr40  1  0.47482517  0.34982520  0.65104863  1
  Sr  Sr41  1  0.47482518  0.84982523  0.65104863  1
  Sr  Sr42  1  0.97482520  0.34982521  0.65104862  1
  Sr  Sr43  1  0.97482517  0.84982521  0.65104862  1
  Sr  Sr44  1  0.32031246  0.19531252  0.57812499  1
  Sr  Sr45  1  0.32031246  0.69531252  0.57812499  1
  Sr  Sr46  1  0.82031246  0.19531252  0.57812499  1
  Sr  Sr47  1  0.82031246  0.69531252  0.57812499  1
