# generated using pymatgen
data_Sc2OsPd
_symmetry_space_group_name_H-M   'P 1'
_cell_length_a   9.28489511
_cell_length_b   9.28489845
_cell_length_c   34.11490335
_cell_angle_alpha   90.00000611
_cell_angle_beta   89.99997908
_cell_angle_gamma   60.00000780
_symmetry_Int_Tables_number   1
_chemical_formula_structural   Sc2OsPd
_chemical_formula_sum   'Sc24 Os12 Pd12'
_cell_volume   2547.00015335
_cell_formula_units_Z   12
loop_
 _symmetry_equiv_pos_site_id
 _symmetry_equiv_pos_as_xyz
  1  'x, y, z'
loop_
 _atom_site_type_symbol
 _atom_site_label
 _atom_site_symmetry_multiplicity
 _atom_site_fract_x
 _atom_site_fract_y
 _atom_site_fract_z
 _atom_site_occupancy
  Os  Os0  1  0.41666671  0.29166663  0.59763991  1
  Os  Os1  1  0.41666672  0.79166665  0.59763991  1
  Os  Os2  1  0.91666671  0.29166664  0.59763992  1
  Os  Os3  1  0.91666674  0.79166666  0.59763993  1
  Os  Os4  1  0.08333327  0.45833333  0.48611110  1
  Os  Os5  1  0.08333327  0.95833333  0.48611110  1
  Os  Os6  1  0.58333327  0.45833333  0.48611110  1
  Os  Os7  1  0.58333327  0.95833333  0.48611110  1
  Os  Os8  1  0.24999994  0.12500000  0.37499999  1
  Os  Os9  1  0.24999994  0.62500000  0.37499999  1
  Os  Os10  1  0.74999994  0.12500000  0.37499999  1
  Os  Os11  1  0.74999994  0.62500000  0.37499999  1
  Pd  Pd12  1  0.08333317  0.45833343  0.64667248  1
  Pd  Pd13  1  0.08333349  0.95833311  0.64667239  1
  Pd  Pd14  1  0.58333355  0.45833323  0.64667252  1
  Pd  Pd15  1  0.58333369  0.95833297  0.64667251  1
  Pd  Pd16  1  0.25000002  0.12500003  0.54166667  1
  Pd  Pd17  1  0.25000002  0.62500003  0.54166667  1
  Pd  Pd18  1  0.75000002  0.12500003  0.54166667  1
  Pd  Pd19  1  0.75000002  0.62500003  0.54166667  1
  Pd  Pd20  1  0.41666669  0.29166669  0.43055556  1
  Pd  Pd21  1  0.41666669  0.79166669  0.43055556  1
  Pd  Pd22  1  0.91666669  0.29166669  0.43055556  1
  Pd  Pd23  1  0.91666669  0.79166669  0.43055556  1
  Sc  Sc24  1  0.08333336  0.45833333  0.56944444  1
  Sc  Sc25  1  0.08333336  0.95833333  0.56944444  1
  Sc  Sc26  1  0.58333336  0.45833333  0.56944444  1
  Sc  Sc27  1  0.58333336  0.95833333  0.56944444  1
  Sc  Sc28  1  0.25000008  0.12499996  0.62522507  1
  Sc  Sc29  1  0.24999980  0.62500027  0.62522495  1
  Sc  Sc30  1  0.75000037  0.12499964  0.62522498  1
  Sc  Sc31  1  0.75000016  0.62500013  0.62522479  1
  Sc  Sc32  1  0.25000003  0.12500000  0.45833333  1
  Sc  Sc33  1  0.25000003  0.62500000  0.45833333  1
  Sc  Sc34  1  0.75000003  0.12500000  0.45833333  1
  Sc  Sc35  1  0.75000003  0.62500000  0.45833333  1
  Sc  Sc36  1  0.41666668  0.29166664  0.51388890  1
  Sc  Sc37  1  0.41666668  0.79166664  0.51388890  1
  Sc  Sc38  1  0.91666668  0.29166664  0.51388890  1
  Sc  Sc39  1  0.91666668  0.79166664  0.51388890  1
  Sc  Sc40  1  0.41666670  0.29166667  0.34722222  1
  Sc  Sc41  1  0.41666670  0.79166667  0.34722222  1
  Sc  Sc42  1  0.91666670  0.29166667  0.34722222  1
  Sc  Sc43  1  0.91666670  0.79166667  0.34722222  1
  Sc  Sc44  1  0.08333335  0.45833331  0.40277778  1
  Sc  Sc45  1  0.08333335  0.95833331  0.40277778  1
  Sc  Sc46  1  0.58333335  0.45833331  0.40277778  1
  Sc  Sc47  1  0.58333335  0.95833331  0.40277778  1
