# generated using pymatgen
data_Sc2CuPt
_symmetry_space_group_name_H-M   'P 1'
_cell_length_a   9.36794634
_cell_length_b   13.24827055
_cell_length_c   37.47176574
_cell_angle_alpha   90.00000420
_cell_angle_beta   89.99999810
_cell_angle_gamma   89.99997094
_symmetry_Int_Tables_number   1
_chemical_formula_structural   Sc2CuPt
_chemical_formula_sum   'Sc48 Cu24 Pt24'
_cell_volume   4650.58665713
_cell_formula_units_Z   24
loop_
 _symmetry_equiv_pos_site_id
 _symmetry_equiv_pos_as_xyz
  1  'x, y, z'
loop_
 _atom_site_type_symbol
 _atom_site_label
 _atom_site_symmetry_multiplicity
 _atom_site_fract_x
 _atom_site_fract_y
 _atom_site_fract_z
 _atom_site_occupancy
  Cu  Cu0  1  0.37499989  0.99999432  0.65272647  1
  Cu  Cu1  1  0.37499996  0.50000577  0.65272701  1
  Cu  Cu2  1  0.87500019  0.99999427  0.65272647  1
  Cu  Cu3  1  0.87499996  0.50000587  0.65272701  1
  Cu  Cu4  1  0.12500000  0.25000000  0.59375000  1
  Cu  Cu5  1  0.12500000  0.75000000  0.59375000  1
  Cu  Cu6  1  0.62500000  0.25000000  0.59375000  1
  Cu  Cu7  1  0.62500000  0.75000000  0.59375000  1
  Cu  Cu8  1  0.37500002  0.00000002  0.53125000  1
  Cu  Cu9  1  0.37500002  0.50000002  0.53125000  1
  Cu  Cu10  1  0.87500002  0.00000002  0.53125000  1
  Cu  Cu11  1  0.87500002  0.50000002  0.53125000  1
  Cu  Cu12  1  0.12500000  0.25000000  0.46875000  1
  Cu  Cu13  1  0.12500000  0.75000000  0.46875000  1
  Cu  Cu14  1  0.62500000  0.25000000  0.46875000  1
  Cu  Cu15  1  0.62500000  0.75000000  0.46875000  1
  Cu  Cu16  1  0.37500002  0.00000002  0.40625000  1
  Cu  Cu17  1  0.37500002  0.50000002  0.40625000  1
  Cu  Cu18  1  0.87500002  0.00000002  0.40625000  1
  Cu  Cu19  1  0.87500002  0.50000002  0.40625000  1
  Cu  Cu20  1  0.12500000  0.25000000  0.34375000  1
  Cu  Cu21  1  0.12500000  0.75000000  0.34375000  1
  Cu  Cu22  1  0.62500000  0.25000000  0.34375000  1
  Cu  Cu23  1  0.62500000  0.75000000  0.34375000  1
  Pt  Pt24  1  0.12499997  0.00000001  0.59374999  1
  Pt  Pt25  1  0.12499997  0.50000001  0.59374999  1
  Pt  Pt26  1  0.62499997  0.00000001  0.59374999  1
  Pt  Pt27  1  0.62499997  0.50000001  0.59374999  1
  Pt  Pt28  1  0.37499992  0.25000083  0.64974322  1
  Pt  Pt29  1  0.37500000  0.74999929  0.64974163  1
  Pt  Pt30  1  0.87500004  0.25000086  0.64974324  1
  Pt  Pt31  1  0.87500006  0.74999926  0.64974167  1
  Pt  Pt32  1  0.12499997  0.00000001  0.46874999  1
  Pt  Pt33  1  0.12499997  0.50000001  0.46874999  1
  Pt  Pt34  1  0.62499997  0.00000001  0.46874999  1
  Pt  Pt35  1  0.62499997  0.50000001  0.46874999  1
  Pt  Pt36  1  0.37500001  0.25000000  0.53125001  1
  Pt  Pt37  1  0.37500001  0.75000000  0.53125001  1
  Pt  Pt38  1  0.87500001  0.25000000  0.53125001  1
  Pt  Pt39  1  0.87500001  0.75000000  0.53125001  1
  Pt  Pt40  1  0.12499997  0.00000001  0.34374999  1
  Pt  Pt41  1  0.12499997  0.50000001  0.34374999  1
  Pt  Pt42  1  0.62499997  0.00000001  0.34374999  1
  Pt  Pt43  1  0.62499997  0.50000001  0.34374999  1
  Pt  Pt44  1  0.37500001  0.25000000  0.40625001  1
  Pt  Pt45  1  0.37500001  0.75000000  0.40625001  1
  Pt  Pt46  1  0.87500001  0.25000000  0.40625001  1
  Pt  Pt47  1  0.87500001  0.75000000  0.40625001  1
  Sc  Sc48  1  0.37500002  0.12500018  0.59375000  1
  Sc  Sc49  1  0.37500002  0.62500018  0.59375000  1
  Sc  Sc50  1  0.87500002  0.12500018  0.59375000  1
  Sc  Sc51  1  0.87500002  0.62500018  0.59375000  1
  Sc  Sc52  1  0.12499982  0.12719388  0.65593065  1
  Sc  Sc53  1  0.12500015  0.62719855  0.65592950  1
  Sc  Sc54  1  0.62499999  0.12719382  0.65593066  1
  Sc  Sc55  1  0.62499948  0.62719873  0.65592962  1
  Sc  Sc56  1  0.12500009  0.37280640  0.65593051  1
  Sc  Sc57  1  0.12499996  0.87280100  0.65592959  1
  Sc  Sc58  1  0.62500002  0.37280655  0.65593047  1
  Sc  Sc59  1  0.62500057  0.87280124  0.65592952  1
  Sc  Sc60  1  0.37499995  0.37499980  0.59375000  1
  Sc  Sc61  1  0.37499995  0.87499980  0.59375000  1
  Sc  Sc62  1  0.87499995  0.37499980  0.59375000  1
  Sc  Sc63  1  0.87499995  0.87499980  0.59375000  1
  Sc  Sc64  1  0.37500002  0.12500018  0.46875000  1
  Sc  Sc65  1  0.37500002  0.62500018  0.46875000  1
  Sc  Sc66  1  0.87500002  0.12500018  0.46875000  1
  Sc  Sc67  1  0.87500002  0.62500018  0.46875000  1
  Sc  Sc68  1  0.12500002  0.12500018  0.53125000  1
  Sc  Sc69  1  0.12500002  0.62500018  0.53125000  1
  Sc  Sc70  1  0.62500002  0.12500018  0.53125000  1
  Sc  Sc71  1  0.62500002  0.62500018  0.53125000  1
  Sc  Sc72  1  0.12500001  0.37499981  0.53125001  1
  Sc  Sc73  1  0.12500001  0.87499981  0.53125001  1
  Sc  Sc74  1  0.62500001  0.37499981  0.53125001  1
  Sc  Sc75  1  0.62500001  0.87499981  0.53125001  1
  Sc  Sc76  1  0.37499995  0.37499980  0.46875000  1
  Sc  Sc77  1  0.37499995  0.87499980  0.46875000  1
  Sc  Sc78  1  0.87499995  0.37499980  0.46875000  1
  Sc  Sc79  1  0.87499995  0.87499980  0.46875000  1
  Sc  Sc80  1  0.37500002  0.12500018  0.34375000  1
  Sc  Sc81  1  0.37500002  0.62500018  0.34375000  1
  Sc  Sc82  1  0.87500002  0.12500018  0.34375000  1
  Sc  Sc83  1  0.87500002  0.62500018  0.34375000  1
  Sc  Sc84  1  0.12500002  0.12500018  0.40625000  1
  Sc  Sc85  1  0.12500002  0.62500018  0.40625000  1
  Sc  Sc86  1  0.62500002  0.12500018  0.40625000  1
  Sc  Sc87  1  0.62500002  0.62500018  0.40625000  1
  Sc  Sc88  1  0.12500001  0.37499981  0.40625001  1
  Sc  Sc89  1  0.12500001  0.87499981  0.40625001  1
  Sc  Sc90  1  0.62500001  0.37499981  0.40625001  1
  Sc  Sc91  1  0.62500001  0.87499981  0.40625001  1
  Sc  Sc92  1  0.37499995  0.37499980  0.34375000  1
  Sc  Sc93  1  0.37499995  0.87499980  0.34375000  1
  Sc  Sc94  1  0.87499995  0.37499980  0.34375000  1
  Sc  Sc95  1  0.87499995  0.87499980  0.34375000  1
