# generated using pymatgen
data_ZnCuAu2
_symmetry_space_group_name_H-M   'P 1'
_cell_length_a   8.98330301
_cell_length_b   12.70430996
_cell_length_c   35.93321203
_cell_angle_alpha   90.00000207
_cell_angle_beta   90.00000006
_cell_angle_gamma   89.99998652
_symmetry_Int_Tables_number   1
_chemical_formula_structural   ZnCuAu2
_chemical_formula_sum   'Zn24 Cu24 Au48'
_cell_volume   4100.93768419
_cell_formula_units_Z   24
loop_
 _symmetry_equiv_pos_site_id
 _symmetry_equiv_pos_as_xyz
  1  'x, y, z'
loop_
 _atom_site_type_symbol
 _atom_site_label
 _atom_site_symmetry_multiplicity
 _atom_site_fract_x
 _atom_site_fract_y
 _atom_site_fract_z
 _atom_site_occupancy
  Au  Au0  1  0.12500003  0.12500010  0.34375000  1
  Au  Au1  1  0.12500003  0.62500010  0.34375000  1
  Au  Au2  1  0.62500003  0.12500010  0.34375000  1
  Au  Au3  1  0.62500003  0.62500010  0.34375000  1
  Au  Au4  1  0.37499999  0.12500011  0.40625000  1
  Au  Au5  1  0.37499999  0.62500011  0.40625000  1
  Au  Au6  1  0.87499999  0.12500011  0.40625000  1
  Au  Au7  1  0.87499999  0.62500011  0.40625000  1
  Au  Au8  1  0.37499999  0.37499989  0.40625000  1
  Au  Au9  1  0.37499999  0.87499989  0.40625000  1
  Au  Au10  1  0.87499999  0.37499989  0.40625000  1
  Au  Au11  1  0.87499999  0.87499989  0.40625000  1
  Au  Au12  1  0.12499998  0.37499991  0.34375000  1
  Au  Au13  1  0.12499998  0.87499991  0.34375000  1
  Au  Au14  1  0.62499998  0.37499991  0.34375000  1
  Au  Au15  1  0.62499998  0.87499991  0.34375000  1
  Au  Au16  1  0.12500003  0.12500010  0.46875000  1
  Au  Au17  1  0.12500003  0.62500010  0.46875000  1
  Au  Au18  1  0.62500003  0.12500010  0.46875000  1
  Au  Au19  1  0.62500003  0.62500010  0.46875000  1
  Au  Au20  1  0.37499999  0.12500011  0.53125000  1
  Au  Au21  1  0.37499999  0.62500011  0.53125000  1
  Au  Au22  1  0.87499999  0.12500011  0.53125000  1
  Au  Au23  1  0.87499999  0.62500011  0.53125000  1
  Au  Au24  1  0.37499999  0.37499989  0.53125000  1
  Au  Au25  1  0.37499999  0.87499989  0.53125000  1
  Au  Au26  1  0.87499999  0.37499989  0.53125000  1
  Au  Au27  1  0.87499999  0.87499989  0.53125000  1
  Au  Au28  1  0.12499998  0.37499991  0.46875000  1
  Au  Au29  1  0.12499998  0.87499991  0.46875000  1
  Au  Au30  1  0.62499998  0.37499991  0.46875000  1
  Au  Au31  1  0.62499998  0.87499991  0.46875000  1
  Au  Au32  1  0.12500003  0.12500010  0.59375000  1
  Au  Au33  1  0.12500003  0.62500010  0.59375000  1
  Au  Au34  1  0.62500003  0.12500010  0.59375000  1
  Au  Au35  1  0.62500003  0.62500010  0.59375000  1
  Au  Au36  1  0.37500003  0.12640485  0.65697382  1
  Au  Au37  1  0.37499982  0.62640491  0.65697383  1
  Au  Au38  1  0.87499997  0.12640484  0.65697375  1
  Au  Au39  1  0.87500026  0.62640491  0.65697382  1
  Au  Au40  1  0.37500014  0.37359514  0.65697381  1
  Au  Au41  1  0.37499966  0.87359516  0.65697383  1
  Au  Au42  1  0.87499983  0.37359502  0.65697381  1
  Au  Au43  1  0.87500024  0.87359530  0.65697383  1
  Au  Au44  1  0.12499998  0.37499991  0.59375000  1
  Au  Au45  1  0.12499998  0.87499991  0.59375000  1
  Au  Au46  1  0.62499998  0.37499991  0.59375000  1
  Au  Au47  1  0.62499998  0.87499991  0.59375000  1
  Cu  Cu48  1  0.37500001  0.50000000  0.34375000  1
  Cu  Cu49  1  0.37500001  1.00000000  0.34375000  1
  Cu  Cu50  1  0.87500001  0.50000000  0.34375000  1
  Cu  Cu51  1  0.87500001  1.00000000  0.34375000  1
  Cu  Cu52  1  0.12500000  0.25000000  0.40625000  1
  Cu  Cu53  1  0.12500000  0.75000000  0.40625000  1
  Cu  Cu54  1  0.62500000  0.25000000  0.40625000  1
  Cu  Cu55  1  0.62500000  0.75000000  0.40625000  1
  Cu  Cu56  1  0.37500001  0.50000000  0.46875000  1
  Cu  Cu57  1  0.37500001  1.00000000  0.46875000  1
  Cu  Cu58  1  0.87500001  0.50000000  0.46875000  1
  Cu  Cu59  1  0.87500001  1.00000000  0.46875000  1
  Cu  Cu60  1  0.12500000  0.25000000  0.53125000  1
  Cu  Cu61  1  0.12500000  0.75000000  0.53125000  1
  Cu  Cu62  1  0.62500000  0.25000000  0.53125000  1
  Cu  Cu63  1  0.62500000  0.75000000  0.53125000  1
  Cu  Cu64  1  0.37500001  0.50000000  0.59375000  1
  Cu  Cu65  1  0.37500001  1.00000000  0.59375000  1
  Cu  Cu66  1  0.87500001  0.50000000  0.59375000  1
  Cu  Cu67  1  0.87500001  1.00000000  0.59375000  1
  Cu  Cu68  1  0.12500012  0.25000006  0.65536006  1
  Cu  Cu69  1  0.12499995  0.74999998  0.65536002  1
  Cu  Cu70  1  0.62499994  0.24999997  0.65536005  1
  Cu  Cu71  1  0.62500000  0.75000003  0.65536014  1
  Zn  Zn72  1  0.12500000  0.00000000  0.40625000  1
  Zn  Zn73  1  0.12500000  0.50000000  0.40625000  1
  Zn  Zn74  1  0.62500000  0.00000000  0.40625000  1
  Zn  Zn75  1  0.62500000  0.50000000  0.40625000  1
  Zn  Zn76  1  0.37500000  0.25000000  0.34375000  1
  Zn  Zn77  1  0.37500000  0.75000000  0.34375000  1
  Zn  Zn78  1  0.87500000  0.25000000  0.34375000  1
  Zn  Zn79  1  0.87500000  0.75000000  0.34375000  1
  Zn  Zn80  1  0.12500000  0.00000000  0.53125000  1
  Zn  Zn81  1  0.12500000  0.50000000  0.53125000  1
  Zn  Zn82  1  0.62500000  0.00000000  0.53125000  1
  Zn  Zn83  1  0.62500000  0.50000000  0.53125000  1
  Zn  Zn84  1  0.37500000  0.25000000  0.46875000  1
  Zn  Zn85  1  0.37500000  0.75000000  0.46875000  1
  Zn  Zn86  1  0.87500000  0.25000000  0.46875000  1
  Zn  Zn87  1  0.87500000  0.75000000  0.46875000  1
  Zn  Zn88  1  0.12499999  0.00000003  0.65789269  1
  Zn  Zn89  1  0.12499997  0.49999996  0.65789271  1
  Zn  Zn90  1  0.62499995  0.00000004  0.65789267  1
  Zn  Zn91  1  0.62499999  0.50000000  0.65789270  1
  Zn  Zn92  1  0.37500000  0.25000000  0.59375000  1
  Zn  Zn93  1  0.37500000  0.75000000  0.59375000  1
  Zn  Zn94  1  0.87500000  0.25000000  0.59375000  1
  Zn  Zn95  1  0.87500000  0.75000000  0.59375000  1
