# generated using pymatgen
data_Ca2PdAu
_symmetry_space_group_name_H-M   'P 1'
_cell_length_a   10.34420376
_cell_length_b   10.34420441
_cell_length_c   33.91573930
_cell_angle_alpha   85.62699298
_cell_angle_beta   85.62699498
_cell_angle_gamma   59.99999957
_symmetry_Int_Tables_number   1
_chemical_formula_structural   Ca2PdAu
_chemical_formula_sum   'Ca24 Pd12 Au12'
_cell_volume   3130.66219464
_cell_formula_units_Z   12
loop_
 _symmetry_equiv_pos_site_id
 _symmetry_equiv_pos_as_xyz
  1  'x, y, z'
loop_
 _atom_site_type_symbol
 _atom_site_label
 _atom_site_symmetry_multiplicity
 _atom_site_fract_x
 _atom_site_fract_y
 _atom_site_fract_z
 _atom_site_occupancy
  Au  Au0  1  0.39843750  0.39843750  0.35937500  1
  Au  Au1  1  0.39843750  0.89843750  0.35937500  1
  Au  Au2  1  0.89843750  0.39843750  0.35937500  1
  Au  Au3  1  0.89843750  0.89843750  0.35937500  1
  Au  Au4  1  0.21093750  0.21093750  0.48437500  1
  Au  Au5  1  0.21093750  0.71093750  0.48437500  1
  Au  Au6  1  0.71093750  0.21093750  0.48437500  1
  Au  Au7  1  0.71093750  0.71093750  0.48437500  1
  Au  Au8  1  0.02343750  0.02343750  0.60937500  1
  Au  Au9  1  0.02343750  0.52343750  0.60937500  1
  Au  Au10  1  0.52343750  0.02343750  0.60937500  1
  Au  Au11  1  0.52343750  0.52343750  0.60937500  1
  Ca  Ca12  1  0.07031249  0.07031250  0.32812500  1
  Ca  Ca13  1  0.07031249  0.57031250  0.32812500  1
  Ca  Ca14  1  0.57031249  0.07031250  0.32812500  1
  Ca  Ca15  1  0.57031249  0.57031250  0.32812500  1
  Ca  Ca16  1  0.22656252  0.22656250  0.39062500  1
  Ca  Ca17  1  0.22656252  0.72656250  0.39062500  1
  Ca  Ca18  1  0.72656252  0.22656250  0.39062500  1
  Ca  Ca19  1  0.72656252  0.72656250  0.39062500  1
  Ca  Ca20  1  0.38281249  0.38281250  0.45312500  1
  Ca  Ca21  1  0.38281249  0.88281250  0.45312500  1
  Ca  Ca22  1  0.88281249  0.38281250  0.45312500  1
  Ca  Ca23  1  0.88281249  0.88281250  0.45312500  1
  Ca  Ca24  1  0.03906252  0.03906250  0.51562500  1
  Ca  Ca25  1  0.03906252  0.53906250  0.51562500  1
  Ca  Ca26  1  0.53906252  0.03906250  0.51562500  1
  Ca  Ca27  1  0.53906252  0.53906250  0.51562500  1
  Ca  Ca28  1  0.19531249  0.19531250  0.57812500  1
  Ca  Ca29  1  0.19531249  0.69531250  0.57812500  1
  Ca  Ca30  1  0.69531249  0.19531250  0.57812500  1
  Ca  Ca31  1  0.69531249  0.69531250  0.57812500  1
  Ca  Ca32  1  0.35061212  0.35061195  0.64632416  1
  Ca  Ca33  1  0.35061208  0.85061205  0.64632450  1
  Ca  Ca34  1  0.85061168  0.35061241  0.64632453  1
  Ca  Ca35  1  0.85061155  0.85061254  0.64632424  1
  Pd  Pd36  1  0.05468750  0.05468750  0.42187500  1
  Pd  Pd37  1  0.05468750  0.55468750  0.42187500  1
  Pd  Pd38  1  0.55468750  0.05468750  0.42187500  1
  Pd  Pd39  1  0.55468750  0.55468750  0.42187500  1
  Pd  Pd40  1  0.36718750  0.36718750  0.54687500  1
  Pd  Pd41  1  0.36718750  0.86718750  0.54687500  1
  Pd  Pd42  1  0.86718750  0.36718750  0.54687500  1
  Pd  Pd43  1  0.86718750  0.86718750  0.54687500  1
  Pd  Pd44  1  0.18173075  0.18173137  0.65958032  1
  Pd  Pd45  1  0.18173080  0.68173129  0.65958026  1
  Pd  Pd46  1  0.68173089  0.18173140  0.65958030  1
  Pd  Pd47  1  0.68173084  0.68173154  0.65958029  1
