# generated using pymatgen
data_AlCuPd2
_symmetry_space_group_name_H-M   'P 1'
_cell_length_a   8.65841980
_cell_length_b   8.65842958
_cell_length_c   31.81308568
_cell_angle_alpha   89.99991834
_cell_angle_beta   89.99996645
_cell_angle_gamma   60.00003079
_symmetry_Int_Tables_number   1
_chemical_formula_structural   AlCuPd2
_chemical_formula_sum   'Al12 Cu12 Pd24'
_cell_volume   2065.44830301
_cell_formula_units_Z   12
loop_
 _symmetry_equiv_pos_site_id
 _symmetry_equiv_pos_as_xyz
  1  'x, y, z'
loop_
 _atom_site_type_symbol
 _atom_site_label
 _atom_site_symmetry_multiplicity
 _atom_site_fract_x
 _atom_site_fract_y
 _atom_site_fract_z
 _atom_site_occupancy
  Al  Al0  1  0.08333333  0.20833334  0.56944444  1
  Al  Al1  1  0.08333333  0.70833334  0.56944444  1
  Al  Al2  1  0.58333333  0.20833334  0.56944444  1
  Al  Al3  1  0.58333333  0.70833334  0.56944444  1
  Al  Al4  1  0.25000000  0.37500001  0.45833333  1
  Al  Al5  1  0.25000000  0.87500001  0.45833333  1
  Al  Al6  1  0.75000000  0.37500001  0.45833333  1
  Al  Al7  1  0.75000000  0.87500001  0.45833333  1
  Al  Al8  1  0.41666666  0.04166668  0.34722222  1
  Al  Al9  1  0.41666666  0.54166668  0.34722222  1
  Al  Al10  1  0.91666666  0.04166668  0.34722222  1
  Al  Al11  1  0.91666666  0.54166668  0.34722222  1
  Cu  Cu12  1  0.25000001  0.37500013  0.62689631  1
  Cu  Cu13  1  0.24999992  0.87500000  0.62689597  1
  Cu  Cu14  1  0.74999997  0.37500001  0.62689585  1
  Cu  Cu15  1  0.75000007  0.87500003  0.62689610  1
  Cu  Cu16  1  0.41666667  0.04166667  0.51388889  1
  Cu  Cu17  1  0.41666667  0.54166667  0.51388889  1
  Cu  Cu18  1  0.91666667  0.04166667  0.51388889  1
  Cu  Cu19  1  0.91666667  0.54166667  0.51388889  1
  Cu  Cu20  1  0.08333334  0.20833333  0.40277778  1
  Cu  Cu21  1  0.08333334  0.70833333  0.40277778  1
  Cu  Cu22  1  0.58333334  0.20833333  0.40277778  1
  Cu  Cu23  1  0.58333334  0.70833333  0.40277778  1
  Pd  Pd24  1  0.08333418  0.20833259  0.64542376  1
  Pd  Pd25  1  0.08333342  0.70833288  0.64542370  1
  Pd  Pd26  1  0.58333302  0.20833260  0.64542366  1
  Pd  Pd27  1  0.58333306  0.70833373  0.64542378  1
  Pd  Pd28  1  0.41666681  0.04166644  0.59735302  1
  Pd  Pd29  1  0.41666639  0.54166695  0.59735292  1
  Pd  Pd30  1  0.91666695  0.04166621  0.59735289  1
  Pd  Pd31  1  0.91666672  0.54166693  0.59735293  1
  Pd  Pd32  1  0.24999998  0.37500003  0.54166666  1
  Pd  Pd33  1  0.24999998  0.87500003  0.54166666  1
  Pd  Pd34  1  0.74999998  0.37500003  0.54166666  1
  Pd  Pd35  1  0.74999998  0.87500003  0.54166666  1
  Pd  Pd36  1  0.08333336  0.20833329  0.48611111  1
  Pd  Pd37  1  0.08333336  0.70833329  0.48611111  1
  Pd  Pd38  1  0.58333336  0.20833329  0.48611111  1
  Pd  Pd39  1  0.58333336  0.70833329  0.48611111  1
  Pd  Pd40  1  0.41666664  0.04166670  0.43055555  1
  Pd  Pd41  1  0.41666664  0.54166670  0.43055555  1
  Pd  Pd42  1  0.91666664  0.04166670  0.43055555  1
  Pd  Pd43  1  0.91666664  0.54166670  0.43055555  1
  Pd  Pd44  1  0.25000002  0.37499996  0.37500000  1
  Pd  Pd45  1  0.25000002  0.87499996  0.37500000  1
  Pd  Pd46  1  0.75000002  0.37499996  0.37500000  1
  Pd  Pd47  1  0.75000002  0.87499996  0.37500000  1
