# generated using pymatgen
data_Y2PdRu
_symmetry_space_group_name_H-M   'P 1'
_cell_length_a   9.86105041
_cell_length_b   9.86105045
_cell_length_c   34.86407597
_cell_angle_alpha   89.99999959
_cell_angle_beta   89.99999919
_cell_angle_gamma   90.00000407
_symmetry_Int_Tables_number   1
_chemical_formula_structural   Y2PdRu
_chemical_formula_sum   'Y32 Pd16 Ru16'
_cell_volume   3390.19374983
_cell_formula_units_Z   16
loop_
 _symmetry_equiv_pos_site_id
 _symmetry_equiv_pos_as_xyz
  1  'x, y, z'
loop_
 _atom_site_type_symbol
 _atom_site_label
 _atom_site_symmetry_multiplicity
 _atom_site_fract_x
 _atom_site_fract_y
 _atom_site_fract_z
 _atom_site_occupancy
  Pd  Pd0  1  0.50000000  0.00000000  0.37500000  1
  Pd  Pd1  1  0.50000000  0.50000000  0.37500000  1
  Pd  Pd2  1  1.00000000  0.00000000  0.37500000  1
  Pd  Pd3  1  1.00000000  0.50000000  0.37500000  1
  Pd  Pd4  1  0.25000000  0.25000000  0.47500000  1
  Pd  Pd5  1  0.25000000  0.75000000  0.47500000  1
  Pd  Pd6  1  0.75000000  0.25000000  0.47500000  1
  Pd  Pd7  1  0.75000000  0.75000000  0.47500000  1
  Pd  Pd8  1  0.50000000  0.00000000  0.57500000  1
  Pd  Pd9  1  0.50000000  0.50000000  0.57500000  1
  Pd  Pd10  1  1.00000000  0.00000000  0.57500000  1
  Pd  Pd11  1  1.00000000  0.50000000  0.57500000  1
  Pd  Pd12  1  0.24999969  0.25000179  0.66909411  1
  Pd  Pd13  1  0.24999959  0.74999838  0.66911534  1
  Pd  Pd14  1  0.75000049  0.25000157  0.66911284  1
  Pd  Pd15  1  0.75000069  0.74999825  0.66909625  1
  Ru  Ru16  1  0.00000000  0.50000000  0.47500000  1
  Ru  Ru17  1  0.00000000  1.00000000  0.47500000  1
  Ru  Ru18  1  0.50000000  0.50000000  0.47500000  1
  Ru  Ru19  1  0.50000000  1.00000000  0.47500000  1
  Ru  Ru20  1  0.25000000  0.25000000  0.37500000  1
  Ru  Ru21  1  0.25000000  0.75000000  0.37500000  1
  Ru  Ru22  1  0.75000000  0.25000000  0.37500000  1
  Ru  Ru23  1  0.75000000  0.75000000  0.37500000  1
  Ru  Ru24  1  0.99999992  0.50000023  0.66122795  1
  Ru  Ru25  1  0.99999981  0.99999972  0.66119649  1
  Ru  Ru26  1  0.49999996  0.50000021  0.66119595  1
  Ru  Ru27  1  0.49999999  0.99999982  0.66122943  1
  Ru  Ru28  1  0.25000000  0.25000000  0.57500000  1
  Ru  Ru29  1  0.25000000  0.75000000  0.57500000  1
  Ru  Ru30  1  0.75000000  0.25000000  0.57500000  1
  Ru  Ru31  1  0.75000000  0.75000000  0.57500000  1
  Y  Y32  1  0.25000000  0.00000000  0.32500002  1
  Y  Y33  1  0.25000000  0.50000000  0.32500002  1
  Y  Y34  1  0.75000000  0.00000000  0.32500002  1
  Y  Y35  1  0.75000000  0.50000000  0.32500002  1
  Y  Y36  1  0.00000000  0.25000000  0.32500002  1
  Y  Y37  1  0.00000000  0.75000000  0.32500002  1
  Y  Y38  1  0.50000000  0.25000000  0.32500002  1
  Y  Y39  1  0.50000000  0.75000000  0.32500002  1
  Y  Y40  1  0.50000000  0.25000000  0.42499998  1
  Y  Y41  1  0.50000000  0.75000000  0.42499998  1
  Y  Y42  1  1.00000000  0.25000000  0.42499998  1
  Y  Y43  1  1.00000000  0.75000000  0.42499998  1
  Y  Y44  1  0.25000000  0.00000000  0.42499998  1
  Y  Y45  1  0.25000000  0.50000000  0.42499998  1
  Y  Y46  1  0.75000000  0.00000000  0.42499998  1
  Y  Y47  1  0.75000000  0.50000000  0.42499998  1
  Y  Y48  1  0.25000000  0.00000000  0.52500002  1
  Y  Y49  1  0.25000000  0.50000000  0.52500002  1
  Y  Y50  1  0.75000000  0.00000000  0.52500002  1
  Y  Y51  1  0.75000000  0.50000000  0.52500002  1
  Y  Y52  1  0.00000000  0.25000000  0.52500002  1
  Y  Y53  1  0.00000000  0.75000000  0.52500002  1
  Y  Y54  1  0.50000000  0.25000000  0.52500002  1
  Y  Y55  1  0.50000000  0.75000000  0.52500002  1
  Y  Y56  1  0.49993896  0.25013134  0.62626304  1
  Y  Y57  1  0.50006190  0.74986853  0.62626249  1
  Y  Y58  1  0.00006061  0.24987599  0.62626360  1
  Y  Y59  1  0.99993752  0.75012414  0.62626298  1
  Y  Y60  1  0.24986879  0.00006970  0.62626297  1
  Y  Y61  1  0.25012417  0.49993006  0.62626299  1
  Y  Y62  1  0.75013185  0.99994690  0.62626308  1
  Y  Y63  1  0.74987629  0.50005328  0.62626307  1
