# generated using pymatgen
data_Sc2CuPt
_symmetry_space_group_name_H-M   'P 1'
_cell_length_a   9.36794091
_cell_length_b   9.36794444
_cell_length_c   34.42001649
_cell_angle_alpha   90.00001138
_cell_angle_beta   90.00000385
_cell_angle_gamma   119.99997410
_symmetry_Int_Tables_number   1
_chemical_formula_structural   Sc2CuPt
_chemical_formula_sum   'Sc24 Cu12 Pt12'
_cell_volume   2615.95499389
_cell_formula_units_Z   12
loop_
 _symmetry_equiv_pos_site_id
 _symmetry_equiv_pos_as_xyz
  1  'x, y, z'
loop_
 _atom_site_type_symbol
 _atom_site_label
 _atom_site_symmetry_multiplicity
 _atom_site_fract_x
 _atom_site_fract_y
 _atom_site_fract_z
 _atom_site_occupancy
  Cu  Cu0  1  0.08344447  0.04172198  0.64804142  1
  Cu  Cu1  1  0.08344458  0.54172176  0.64804126  1
  Cu  Cu2  1  0.58344487  0.04172259  0.64804149  1
  Cu  Cu3  1  0.58344437  0.54172255  0.64804151  1
  Cu  Cu4  1  0.25000004  0.37499999  0.54542670  1
  Cu  Cu5  1  0.25000004  0.87499999  0.54542670  1
  Cu  Cu6  1  0.75000004  0.37499999  0.54542670  1
  Cu  Cu7  1  0.75000004  0.87499999  0.54542670  1
  Cu  Cu8  1  0.41666678  0.20833332  0.43431558  1
  Cu  Cu9  1  0.41666678  0.70833332  0.43431558  1
  Cu  Cu10  1  0.91666678  0.20833332  0.43431558  1
  Cu  Cu11  1  0.91666678  0.70833332  0.43431558  1
  Pt  Pt12  1  0.41668548  0.20834277  0.59955460  1
  Pt  Pt13  1  0.41668522  0.70834232  0.59955463  1
  Pt  Pt14  1  0.91668593  0.20834332  0.59955461  1
  Pt  Pt15  1  0.91668597  0.70834283  0.59955467  1
  Pt  Pt16  1  0.08333351  0.04166667  0.48987113  1
  Pt  Pt17  1  0.08333351  0.54166667  0.48987113  1
  Pt  Pt18  1  0.58333351  0.04166667  0.48987113  1
  Pt  Pt19  1  0.58333351  0.54166667  0.48987113  1
  Pt  Pt20  1  0.25000004  0.37500000  0.37876003  1
  Pt  Pt21  1  0.25000004  0.87500000  0.37876003  1
  Pt  Pt22  1  0.75000004  0.37500000  0.37876003  1
  Pt  Pt23  1  0.75000004  0.87500000  0.37876003  1
  Sc  Sc24  1  0.25004832  0.37502409  0.62854840  1
  Sc  Sc25  1  0.25004827  0.87502365  0.62854861  1
  Sc  Sc26  1  0.75004872  0.37502404  0.62854855  1
  Sc  Sc27  1  0.75004845  0.87502375  0.62854874  1
  Sc  Sc28  1  0.08333353  0.04166669  0.57320445  1
  Sc  Sc29  1  0.08333353  0.54166669  0.57320445  1
  Sc  Sc30  1  0.58333353  0.04166669  0.57320445  1
  Sc  Sc31  1  0.58333353  0.54166669  0.57320445  1
  Sc  Sc32  1  0.41666679  0.20833332  0.51764891  1
  Sc  Sc33  1  0.41666679  0.70833332  0.51764891  1
  Sc  Sc34  1  0.91666679  0.20833332  0.51764891  1
  Sc  Sc35  1  0.91666679  0.70833332  0.51764891  1
  Sc  Sc36  1  0.25000006  0.37500002  0.46209336  1
  Sc  Sc37  1  0.25000006  0.87500002  0.46209336  1
  Sc  Sc38  1  0.75000006  0.37500002  0.46209336  1
  Sc  Sc39  1  0.75000006  0.87500002  0.46209336  1
  Sc  Sc40  1  0.08333352  0.04166666  0.40653779  1
  Sc  Sc41  1  0.08333352  0.54166666  0.40653779  1
  Sc  Sc42  1  0.58333352  0.04166666  0.40653779  1
  Sc  Sc43  1  0.58333352  0.54166666  0.40653779  1
  Sc  Sc44  1  0.41666680  0.20833335  0.35098224  1
  Sc  Sc45  1  0.41666680  0.70833335  0.35098224  1
  Sc  Sc46  1  0.91666680  0.20833335  0.35098224  1
  Sc  Sc47  1  0.91666680  0.70833335  0.35098224  1
