# generated using pymatgen
data_Sc2CuOs
_symmetry_space_group_name_H-M   'P 1'
_cell_length_a   9.22276321
_cell_length_b   9.22276314
_cell_length_c   33.88659348
_cell_angle_alpha   90.00002299
_cell_angle_beta   90.00002392
_cell_angle_gamma   59.99997361
_symmetry_Int_Tables_number   1
_chemical_formula_structural   Sc2CuOs
_chemical_formula_sum   'Sc24 Cu12 Os12'
_cell_volume   2496.20668911
_cell_formula_units_Z   12
loop_
 _symmetry_equiv_pos_site_id
 _symmetry_equiv_pos_as_xyz
  1  'x, y, z'
loop_
 _atom_site_type_symbol
 _atom_site_label
 _atom_site_symmetry_multiplicity
 _atom_site_fract_x
 _atom_site_fract_y
 _atom_site_fract_z
 _atom_site_occupancy
  Cu  Cu0  1  0.41666723  0.04166686  0.64543271  1
  Cu  Cu1  1  0.41666669  0.54166699  0.64543265  1
  Cu  Cu2  1  0.91666700  0.04166729  0.64543270  1
  Cu  Cu3  1  0.91666723  0.54166658  0.64543273  1
  Cu  Cu4  1  0.24999999  0.37500002  0.54166667  1
  Cu  Cu5  1  0.24999999  0.87500002  0.54166667  1
  Cu  Cu6  1  0.74999999  0.37500002  0.54166667  1
  Cu  Cu7  1  0.74999999  0.87500002  0.54166667  1
  Cu  Cu8  1  0.08333332  0.20833335  0.43055555  1
  Cu  Cu9  1  0.08333332  0.70833335  0.43055555  1
  Cu  Cu10  1  0.58333332  0.20833335  0.43055555  1
  Cu  Cu11  1  0.58333332  0.70833335  0.43055555  1
  Os  Os12  1  0.08333284  0.20833372  0.59875610  1
  Os  Os13  1  0.08333329  0.70833345  0.59875605  1
  Os  Os14  1  0.58333338  0.20833366  0.59875617  1
  Os  Os15  1  0.58333335  0.70833363  0.59875617  1
  Os  Os16  1  0.41666670  0.04166663  0.48611112  1
  Os  Os17  1  0.41666670  0.54166663  0.48611112  1
  Os  Os18  1  0.91666670  0.04166663  0.48611112  1
  Os  Os19  1  0.91666670  0.54166663  0.48611112  1
  Os  Os20  1  0.25000003  0.37499996  0.37500000  1
  Os  Os21  1  0.25000003  0.87499996  0.37500000  1
  Os  Os22  1  0.75000003  0.37499996  0.37500000  1
  Os  Os23  1  0.75000003  0.87499996  0.37500000  1
  Sc  Sc24  1  0.25000043  0.37500031  0.62548181  1
  Sc  Sc25  1  0.25000106  0.87499910  0.62548164  1
  Sc  Sc26  1  0.74999969  0.37500012  0.62548166  1
  Sc  Sc27  1  0.75000012  0.87499990  0.62548164  1
  Sc  Sc28  1  0.41666664  0.04166668  0.56944445  1
  Sc  Sc29  1  0.41666664  0.54166668  0.56944445  1
  Sc  Sc30  1  0.91666664  0.04166668  0.56944445  1
  Sc  Sc31  1  0.91666664  0.54166668  0.56944445  1
  Sc  Sc32  1  0.08333335  0.20833334  0.51388888  1
  Sc  Sc33  1  0.08333335  0.70833334  0.51388888  1
  Sc  Sc34  1  0.58333335  0.20833334  0.51388888  1
  Sc  Sc35  1  0.58333335  0.70833334  0.51388888  1
  Sc  Sc36  1  0.24999997  0.37500001  0.45833334  1
  Sc  Sc37  1  0.24999997  0.87500001  0.45833334  1
  Sc  Sc38  1  0.74999997  0.37500001  0.45833334  1
  Sc  Sc39  1  0.74999997  0.87500001  0.45833334  1
  Sc  Sc40  1  0.41666668  0.04166668  0.40277777  1
  Sc  Sc41  1  0.41666668  0.54166668  0.40277777  1
  Sc  Sc42  1  0.91666668  0.04166668  0.40277777  1
  Sc  Sc43  1  0.91666668  0.54166668  0.40277777  1
  Sc  Sc44  1  0.08333330  0.20833334  0.34722223  1
  Sc  Sc45  1  0.08333330  0.70833334  0.34722223  1
  Sc  Sc46  1  0.58333330  0.20833334  0.34722223  1
  Sc  Sc47  1  0.58333330  0.70833334  0.34722223  1
