# generated using pymatgen
data_ZnCuPd2
_symmetry_space_group_name_H-M   'P 1'
_cell_length_a   8.67002976
_cell_length_b   8.67003062
_cell_length_c   31.85573603
_cell_angle_alpha   89.99999075
_cell_angle_beta   90.00000297
_cell_angle_gamma   119.99998809
_symmetry_Int_Tables_number   1
_chemical_formula_structural   ZnCuPd2
_chemical_formula_sum   'Zn12 Cu12 Pd24'
_cell_volume   2073.76503285
_cell_formula_units_Z   12
loop_
 _symmetry_equiv_pos_site_id
 _symmetry_equiv_pos_as_xyz
  1  'x, y, z'
loop_
 _atom_site_type_symbol
 _atom_site_label
 _atom_site_symmetry_multiplicity
 _atom_site_fract_x
 _atom_site_fract_y
 _atom_site_fract_z
 _atom_site_occupancy
  Cu  Cu0  1  0.08333300  0.04166692  0.65370599  1
  Cu  Cu1  1  0.08333304  0.54166684  0.65370606  1
  Cu  Cu2  1  0.58333321  0.04166695  0.65370609  1
  Cu  Cu3  1  0.58333316  0.54166698  0.65370620  1
  Cu  Cu4  1  0.25000003  0.37499999  0.54522676  1
  Cu  Cu5  1  0.25000003  0.87499999  0.54522676  1
  Cu  Cu6  1  0.75000003  0.37499999  0.54522676  1
  Cu  Cu7  1  0.75000003  0.87499999  0.54522676  1
  Cu  Cu8  1  0.41666674  0.20833333  0.43411564  1
  Cu  Cu9  1  0.41666674  0.70833333  0.43411564  1
  Cu  Cu10  1  0.91666674  0.20833333  0.43411564  1
  Cu  Cu11  1  0.91666674  0.70833333  0.43411564  1
  Pd  Pd12  1  0.24999999  0.37499976  0.62697140  1
  Pd  Pd13  1  0.25000018  0.87499990  0.62697143  1
  Pd  Pd14  1  0.75000032  0.37499979  0.62697142  1
  Pd  Pd15  1  0.75000034  0.87500009  0.62697144  1
  Pd  Pd16  1  0.08333347  0.04166666  0.57300452  1
  Pd  Pd17  1  0.08333347  0.54166666  0.57300452  1
  Pd  Pd18  1  0.58333347  0.04166666  0.57300452  1
  Pd  Pd19  1  0.58333347  0.54166666  0.57300452  1
  Pd  Pd20  1  0.41666673  0.20833335  0.51744898  1
  Pd  Pd21  1  0.41666673  0.70833335  0.51744898  1
  Pd  Pd22  1  0.91666673  0.20833335  0.51744898  1
  Pd  Pd23  1  0.91666673  0.70833335  0.51744898  1
  Pd  Pd24  1  0.25000005  0.37500000  0.46189342  1
  Pd  Pd25  1  0.25000005  0.87500000  0.46189342  1
  Pd  Pd26  1  0.75000005  0.37500000  0.46189342  1
  Pd  Pd27  1  0.75000005  0.87500000  0.46189342  1
  Pd  Pd28  1  0.08333344  0.04166668  0.40633786  1
  Pd  Pd29  1  0.08333344  0.54166668  0.40633786  1
  Pd  Pd30  1  0.58333344  0.04166668  0.40633786  1
  Pd  Pd31  1  0.58333344  0.54166668  0.40633786  1
  Pd  Pd32  1  0.41666676  0.20833333  0.35078230  1
  Pd  Pd33  1  0.41666676  0.70833333  0.35078230  1
  Pd  Pd34  1  0.91666676  0.20833333  0.35078230  1
  Pd  Pd35  1  0.91666676  0.70833333  0.35078230  1
  Zn  Zn36  1  0.41666645  0.20833333  0.60436439  1
  Zn  Zn37  1  0.41666643  0.70833311  0.60436441  1
  Zn  Zn38  1  0.91666701  0.20833353  0.60436446  1
  Zn  Zn39  1  0.91666687  0.70833344  0.60436441  1
  Zn  Zn40  1  0.08333345  0.04166666  0.48967119  1
  Zn  Zn41  1  0.08333345  0.54166666  0.48967119  1
  Zn  Zn42  1  0.58333345  0.04166666  0.48967119  1
  Zn  Zn43  1  0.58333345  0.54166666  0.48967119  1
  Zn  Zn44  1  0.25000003  0.37500000  0.37856009  1
  Zn  Zn45  1  0.25000003  0.87500000  0.37856009  1
  Zn  Zn46  1  0.75000003  0.37500000  0.37856009  1
  Zn  Zn47  1  0.75000003  0.87500000  0.37856009  1
