# generated using pymatgen
data_Sc2IrPd
_symmetry_space_group_name_H-M   'P 1'
_cell_length_a   9.32697069
_cell_length_b   13.19032783
_cell_length_c   37.30788275
_cell_angle_alpha   89.99999852
_cell_angle_beta   89.99997795
_cell_angle_gamma   89.99999696
_symmetry_Int_Tables_number   1
_chemical_formula_structural   Sc2IrPd
_chemical_formula_sum   'Sc48 Ir24 Pd24'
_cell_volume   4589.83216124
_cell_formula_units_Z   24
loop_
 _symmetry_equiv_pos_site_id
 _symmetry_equiv_pos_as_xyz
  1  'x, y, z'
loop_
 _atom_site_type_symbol
 _atom_site_label
 _atom_site_symmetry_multiplicity
 _atom_site_fract_x
 _atom_site_fract_y
 _atom_site_fract_z
 _atom_site_occupancy
  Ir  Ir0  1  0.12499992  0.00000000  0.34375001  1
  Ir  Ir1  1  0.12499992  0.50000000  0.34375001  1
  Ir  Ir2  1  0.62499992  0.00000000  0.34375001  1
  Ir  Ir3  1  0.62499992  0.50000000  0.34375001  1
  Ir  Ir4  1  0.37500004  0.24999998  0.40625000  1
  Ir  Ir5  1  0.37500004  0.74999998  0.40625000  1
  Ir  Ir6  1  0.87500004  0.24999998  0.40625000  1
  Ir  Ir7  1  0.87500004  0.74999998  0.40625000  1
  Ir  Ir8  1  0.12499992  0.00000000  0.46875001  1
  Ir  Ir9  1  0.12499992  0.50000000  0.46875001  1
  Ir  Ir10  1  0.62499992  0.00000000  0.46875001  1
  Ir  Ir11  1  0.62499992  0.50000000  0.46875001  1
  Ir  Ir12  1  0.37500004  0.24999998  0.53125000  1
  Ir  Ir13  1  0.37500004  0.74999998  0.53125000  1
  Ir  Ir14  1  0.87500004  0.24999998  0.53125000  1
  Ir  Ir15  1  0.87500004  0.74999998  0.53125000  1
  Ir  Ir16  1  0.12499992  0.00000000  0.59375001  1
  Ir  Ir17  1  0.12499992  0.50000000  0.59375001  1
  Ir  Ir18  1  0.62499992  0.00000000  0.59375001  1
  Ir  Ir19  1  0.62499992  0.50000000  0.59375001  1
  Ir  Ir20  1  0.37499997  0.24999990  0.65025365  1
  Ir  Ir21  1  0.37499997  0.74999998  0.65025365  1
  Ir  Ir22  1  0.87499992  0.25000007  0.65025366  1
  Ir  Ir23  1  0.87499991  0.75000009  0.65025366  1
  Pd  Pd24  1  0.37500002  0.00000002  0.40625000  1
  Pd  Pd25  1  0.37500002  0.50000002  0.40625000  1
  Pd  Pd26  1  0.87500002  0.00000002  0.40625000  1
  Pd  Pd27  1  0.87500002  0.50000002  0.40625000  1
  Pd  Pd28  1  0.12500001  0.24999998  0.34375000  1
  Pd  Pd29  1  0.12500001  0.74999998  0.34375000  1
  Pd  Pd30  1  0.62500001  0.24999998  0.34375000  1
  Pd  Pd31  1  0.62500001  0.74999998  0.34375000  1
  Pd  Pd32  1  0.37500002  0.00000002  0.53125000  1
  Pd  Pd33  1  0.37500002  0.50000002  0.53125000  1
  Pd  Pd34  1  0.87500002  0.00000002  0.53125000  1
  Pd  Pd35  1  0.87500002  0.50000002  0.53125000  1
  Pd  Pd36  1  0.12500001  0.24999998  0.46875000  1
  Pd  Pd37  1  0.12500001  0.74999998  0.46875000  1
  Pd  Pd38  1  0.62500001  0.24999998  0.46875000  1
  Pd  Pd39  1  0.62500001  0.74999998  0.46875000  1
  Pd  Pd40  1  0.37499995  0.99999992  0.65277298  1
  Pd  Pd41  1  0.37500003  0.50000010  0.65277293  1
  Pd  Pd42  1  0.87499999  0.99999997  0.65277296  1
  Pd  Pd43  1  0.87499991  0.50000009  0.65277297  1
  Pd  Pd44  1  0.12500001  0.24999998  0.59375000  1
  Pd  Pd45  1  0.12500001  0.74999998  0.59375000  1
  Pd  Pd46  1  0.62500001  0.24999998  0.59375000  1
  Pd  Pd47  1  0.62500001  0.74999998  0.59375000  1
  Sc  Sc48  1  0.12499997  0.12500018  0.40625001  1
  Sc  Sc49  1  0.12499997  0.62500018  0.40625001  1
  Sc  Sc50  1  0.62499997  0.12500018  0.40625001  1
  Sc  Sc51  1  0.62499997  0.62500018  0.40625001  1
  Sc  Sc52  1  0.37500006  0.12500017  0.34374998  1
  Sc  Sc53  1  0.37500006  0.62500017  0.34374998  1
  Sc  Sc54  1  0.87500006  0.12500017  0.34374998  1
  Sc  Sc55  1  0.87500006  0.62500017  0.34374998  1
  Sc  Sc56  1  0.37500002  0.37499982  0.34375001  1
  Sc  Sc57  1  0.37500002  0.87499982  0.34375001  1
  Sc  Sc58  1  0.87500002  0.37499982  0.34375001  1
  Sc  Sc59  1  0.87500002  0.87499982  0.34375001  1
  Sc  Sc60  1  0.12499996  0.37499984  0.40624999  1
  Sc  Sc61  1  0.12499996  0.87499984  0.40624999  1
  Sc  Sc62  1  0.62499996  0.37499984  0.40624999  1
  Sc  Sc63  1  0.62499996  0.87499984  0.40624999  1
  Sc  Sc64  1  0.12499997  0.12500018  0.53125001  1
  Sc  Sc65  1  0.12499997  0.62500018  0.53125001  1
  Sc  Sc66  1  0.62499997  0.12500018  0.53125001  1
  Sc  Sc67  1  0.62499997  0.62500018  0.53125001  1
  Sc  Sc68  1  0.37500006  0.12500017  0.46874998  1
  Sc  Sc69  1  0.37500006  0.62500017  0.46874998  1
  Sc  Sc70  1  0.87500006  0.12500017  0.46874998  1
  Sc  Sc71  1  0.87500006  0.62500017  0.46874998  1
  Sc  Sc72  1  0.37500002  0.37499982  0.46875001  1
  Sc  Sc73  1  0.37500002  0.87499982  0.46875001  1
  Sc  Sc74  1  0.87500002  0.37499982  0.46875001  1
  Sc  Sc75  1  0.87500002  0.87499982  0.46875001  1
  Sc  Sc76  1  0.12499996  0.37499984  0.53124999  1
  Sc  Sc77  1  0.12499996  0.87499984  0.53124999  1
  Sc  Sc78  1  0.62499996  0.37499984  0.53124999  1
  Sc  Sc79  1  0.62499996  0.87499984  0.53124999  1
  Sc  Sc80  1  0.12499995  0.12843390  0.65671053  1
  Sc  Sc81  1  0.12499977  0.62843392  0.65671061  1
  Sc  Sc82  1  0.62500005  0.12843353  0.65671045  1
  Sc  Sc83  1  0.62500014  0.62843350  0.65671050  1
  Sc  Sc84  1  0.37500006  0.12500017  0.59374998  1
  Sc  Sc85  1  0.37500006  0.62500017  0.59374998  1
  Sc  Sc86  1  0.87500006  0.12500017  0.59374998  1
  Sc  Sc87  1  0.87500006  0.62500017  0.59374998  1
  Sc  Sc88  1  0.37500002  0.37499982  0.59375001  1
  Sc  Sc89  1  0.37500002  0.87499982  0.59375001  1
  Sc  Sc90  1  0.87500002  0.37499982  0.59375001  1
  Sc  Sc91  1  0.87500002  0.87499982  0.59375001  1
  Sc  Sc92  1  0.12500000  0.37156615  0.65671055  1
  Sc  Sc93  1  0.12499992  0.87156604  0.65671061  1
  Sc  Sc94  1  0.62499994  0.37156647  0.65671049  1
  Sc  Sc95  1  0.62500000  0.87156641  0.65671049  1
