# generated using pymatgen
data_Ca2PdAu
_symmetry_space_group_name_H-M   'P 1'
_cell_length_a   10.34420376
_cell_length_b   10.34420390
_cell_length_c   36.57228392
_cell_angle_alpha   89.99999524
_cell_angle_beta   89.99999690
_cell_angle_gamma   90.00000006
_symmetry_Int_Tables_number   1
_chemical_formula_structural   Ca2PdAu
_chemical_formula_sum   'Ca32 Pd16 Au16'
_cell_volume   3913.32774397
_cell_formula_units_Z   16
loop_
 _symmetry_equiv_pos_site_id
 _symmetry_equiv_pos_as_xyz
  1  'x, y, z'
loop_
 _atom_site_type_symbol
 _atom_site_label
 _atom_site_symmetry_multiplicity
 _atom_site_fract_x
 _atom_site_fract_y
 _atom_site_fract_z
 _atom_site_occupancy
  Au  Au0  1  0.00000000  0.50000000  0.37500000  1
  Au  Au1  1  0.00000000  1.00000000  0.37500000  1
  Au  Au2  1  0.50000000  0.50000000  0.37500000  1
  Au  Au3  1  0.50000000  1.00000000  0.37500000  1
  Au  Au4  1  0.25000000  0.25000000  0.47500000  1
  Au  Au5  1  0.25000000  0.75000000  0.47500000  1
  Au  Au6  1  0.75000000  0.25000000  0.47500000  1
  Au  Au7  1  0.75000000  0.75000000  0.47500000  1
  Au  Au8  1  0.00000000  0.50000000  0.57500000  1
  Au  Au9  1  0.00000000  1.00000000  0.57500000  1
  Au  Au10  1  0.50000000  0.50000000  0.57500000  1
  Au  Au11  1  0.50000000  1.00000000  0.57500000  1
  Au  Au12  1  0.24999998  0.24999988  0.67032005  1
  Au  Au13  1  0.25000001  0.75000009  0.67032004  1
  Au  Au14  1  0.75000000  0.25000009  0.67032005  1
  Au  Au15  1  0.74999998  0.74999989  0.67032006  1
  Ca  Ca16  1  0.25000000  0.50000000  0.32499997  1
  Ca  Ca17  1  0.25000000  1.00000000  0.32499997  1
  Ca  Ca18  1  0.75000000  0.50000000  0.32499997  1
  Ca  Ca19  1  0.75000000  1.00000000  0.32499997  1
  Ca  Ca20  1  0.49999998  0.25000001  0.32499998  1
  Ca  Ca21  1  0.49999998  0.75000001  0.32499998  1
  Ca  Ca22  1  0.99999998  0.25000001  0.32499998  1
  Ca  Ca23  1  0.99999998  0.75000001  0.32499998  1
  Ca  Ca24  1  0.00000002  0.25000000  0.42500003  1
  Ca  Ca25  1  0.00000002  0.75000000  0.42500003  1
  Ca  Ca26  1  0.50000002  0.25000000  0.42500003  1
  Ca  Ca27  1  0.50000002  0.75000000  0.42500003  1
  Ca  Ca28  1  0.24999998  0.50000000  0.42500003  1
  Ca  Ca29  1  0.24999998  1.00000000  0.42500003  1
  Ca  Ca30  1  0.74999998  0.50000000  0.42500003  1
  Ca  Ca31  1  0.74999998  1.00000000  0.42500003  1
  Ca  Ca32  1  0.25000000  0.50000000  0.52499997  1
  Ca  Ca33  1  0.25000000  1.00000000  0.52499997  1
  Ca  Ca34  1  0.75000000  0.50000000  0.52499997  1
  Ca  Ca35  1  0.75000000  1.00000000  0.52499997  1
  Ca  Ca36  1  0.49999998  0.25000001  0.52499998  1
  Ca  Ca37  1  0.49999998  0.75000001  0.52499998  1
  Ca  Ca38  1  0.99999998  0.25000001  0.52499998  1
  Ca  Ca39  1  0.99999998  0.75000001  0.52499998  1
  Ca  Ca40  1  0.99999997  0.24999911  0.62703687  1
  Ca  Ca41  1  0.00000002  0.75000089  0.62703689  1
  Ca  Ca42  1  0.50000003  0.25000089  0.62703688  1
  Ca  Ca43  1  0.49999997  0.74999909  0.62703687  1
  Ca  Ca44  1  0.25000086  0.50000001  0.62703680  1
  Ca  Ca45  1  0.24999910  0.99999995  0.62703680  1
  Ca  Ca46  1  0.74999908  0.49999995  0.62703679  1
  Ca  Ca47  1  0.75000086  0.00000001  0.62703681  1
  Pd  Pd48  1  0.00000000  0.49999999  0.47500000  1
  Pd  Pd49  1  0.00000000  0.99999999  0.47500000  1
  Pd  Pd50  1  0.50000000  0.49999999  0.47500000  1
  Pd  Pd51  1  0.50000000  0.99999999  0.47500000  1
  Pd  Pd52  1  0.25000000  0.25000000  0.37500000  1
  Pd  Pd53  1  0.25000000  0.75000000  0.37500000  1
  Pd  Pd54  1  0.75000000  0.25000000  0.37500000  1
  Pd  Pd55  1  0.75000000  0.75000000  0.37500000  1
  Pd  Pd56  1  0.99999992  0.49999997  0.66184234  1
  Pd  Pd57  1  0.00000010  0.00000001  0.66184207  1
  Pd  Pd58  1  0.50000008  0.50000001  0.66184207  1
  Pd  Pd59  1  0.49999990  0.99999996  0.66184234  1
  Pd  Pd60  1  0.25000000  0.25000000  0.57500000  1
  Pd  Pd61  1  0.25000000  0.75000000  0.57500000  1
  Pd  Pd62  1  0.75000000  0.25000000  0.57500000  1
  Pd  Pd63  1  0.75000000  0.75000000  0.57500000  1
