# generated using pymatgen
data_Sc2ZnPt
_symmetry_space_group_name_H-M   'P 1'
_cell_length_a   9.48008783
_cell_length_b   9.48008534
_cell_length_c   33.51717551
_cell_angle_alpha   89.99998574
_cell_angle_beta   89.99999631
_cell_angle_gamma   90.00001112
_symmetry_Int_Tables_number   1
_chemical_formula_structural   Sc2ZnPt
_chemical_formula_sum   'Sc32 Zn16 Pt16'
_cell_volume   3012.25699373
_cell_formula_units_Z   16
loop_
 _symmetry_equiv_pos_site_id
 _symmetry_equiv_pos_as_xyz
  1  'x, y, z'
loop_
 _atom_site_type_symbol
 _atom_site_label
 _atom_site_symmetry_multiplicity
 _atom_site_fract_x
 _atom_site_fract_y
 _atom_site_fract_z
 _atom_site_occupancy
  Pt  Pt0  1  0.49999984  0.00000001  0.36282970  1
  Pt  Pt1  1  0.49999984  0.50000001  0.36282970  1
  Pt  Pt2  1  0.99999984  0.00000001  0.36282970  1
  Pt  Pt3  1  0.99999984  0.50000001  0.36282970  1
  Pt  Pt4  1  0.24999993  0.24999999  0.46282970  1
  Pt  Pt5  1  0.24999993  0.74999999  0.46282970  1
  Pt  Pt6  1  0.74999993  0.24999999  0.46282970  1
  Pt  Pt7  1  0.74999993  0.74999999  0.46282970  1
  Pt  Pt8  1  0.49999984  0.00000001  0.56282970  1
  Pt  Pt9  1  0.49999984  0.50000001  0.56282970  1
  Pt  Pt10  1  0.99999984  0.00000001  0.56282970  1
  Pt  Pt11  1  0.99999984  0.50000001  0.56282970  1
  Pt  Pt12  1  0.24999966  0.25000057  0.65326928  1
  Pt  Pt13  1  0.24999989  0.74999941  0.65326936  1
  Pt  Pt14  1  0.74999989  0.25000011  0.65326934  1
  Pt  Pt15  1  0.75000012  0.74999979  0.65326931  1
  Sc  Sc16  1  0.49999992  0.24999995  0.31282974  1
  Sc  Sc17  1  0.49999992  0.74999995  0.31282974  1
  Sc  Sc18  1  0.99999992  0.24999995  0.31282974  1
  Sc  Sc19  1  0.99999992  0.74999995  0.31282974  1
  Sc  Sc20  1  0.24999996  0.49999997  0.31282974  1
  Sc  Sc21  1  0.24999996  0.99999997  0.31282974  1
  Sc  Sc22  1  0.74999996  0.49999997  0.31282974  1
  Sc  Sc23  1  0.74999996  0.99999997  0.31282974  1
  Sc  Sc24  1  0.24999982  0.00000005  0.41282971  1
  Sc  Sc25  1  0.24999982  0.50000005  0.41282971  1
  Sc  Sc26  1  0.74999982  0.00000005  0.41282971  1
  Sc  Sc27  1  0.74999982  0.50000005  0.41282971  1
  Sc  Sc28  1  0.49999989  0.24999999  0.41282967  1
  Sc  Sc29  1  0.49999989  0.74999999  0.41282967  1
  Sc  Sc30  1  0.99999989  0.24999999  0.41282967  1
  Sc  Sc31  1  0.99999989  0.74999999  0.41282967  1
  Sc  Sc32  1  0.49999992  0.24999995  0.51282974  1
  Sc  Sc33  1  0.49999992  0.74999995  0.51282974  1
  Sc  Sc34  1  0.99999992  0.24999995  0.51282974  1
  Sc  Sc35  1  0.99999992  0.74999995  0.51282974  1
  Sc  Sc36  1  0.24999996  0.49999997  0.51282974  1
  Sc  Sc37  1  0.24999996  0.99999997  0.51282974  1
  Sc  Sc38  1  0.74999996  0.49999997  0.51282974  1
  Sc  Sc39  1  0.74999996  0.99999997  0.51282974  1
  Sc  Sc40  1  0.24999989  0.99999997  0.61414888  1
  Sc  Sc41  1  0.25000015  0.50000006  0.61414856  1
  Sc  Sc42  1  0.74999949  0.00000004  0.61414869  1
  Sc  Sc43  1  0.74999949  0.49999995  0.61414877  1
  Sc  Sc44  1  0.49999977  0.24999989  0.61414879  1
  Sc  Sc45  1  0.49999985  0.75000037  0.61414877  1
  Sc  Sc46  1  0.99999981  0.24999972  0.61414867  1
  Sc  Sc47  1  0.99999985  0.75000013  0.61414878  1
  Zn  Zn48  1  0.49999979  0.00000003  0.46282970  1
  Zn  Zn49  1  0.49999979  0.50000003  0.46282970  1
  Zn  Zn50  1  0.99999979  0.00000003  0.46282970  1
  Zn  Zn51  1  0.99999979  0.50000003  0.46282970  1
  Zn  Zn52  1  0.24999988  0.25000001  0.36282971  1
  Zn  Zn53  1  0.24999988  0.75000001  0.36282971  1
  Zn  Zn54  1  0.74999988  0.25000001  0.36282971  1
  Zn  Zn55  1  0.74999988  0.75000001  0.36282971  1
  Zn  Zn56  1  0.49999977  0.00000013  0.66918425  1
  Zn  Zn57  1  0.49999961  0.49999998  0.66918442  1
  Zn  Zn58  1  0.99999961  0.99999989  0.66918422  1
  Zn  Zn59  1  0.99999994  0.49999998  0.66918430  1
  Zn  Zn60  1  0.24999988  0.25000001  0.56282971  1
  Zn  Zn61  1  0.24999988  0.75000001  0.56282971  1
  Zn  Zn62  1  0.74999988  0.25000001  0.56282971  1
  Zn  Zn63  1  0.74999988  0.75000001  0.56282971  1
