# generated using pymatgen
data_Sr2AgPt
_symmetry_space_group_name_H-M   'P 1'
_cell_length_a   10.90181774
_cell_length_b   10.90181550
_cell_length_c   38.54374791
_cell_angle_alpha   89.99999269
_cell_angle_beta   89.99997262
_cell_angle_gamma   89.99999711
_symmetry_Int_Tables_number   1
_chemical_formula_structural   Sr2AgPt
_chemical_formula_sum   'Sr32 Ag16 Pt16'
_cell_volume   4580.90923807
_cell_formula_units_Z   16
loop_
 _symmetry_equiv_pos_site_id
 _symmetry_equiv_pos_as_xyz
  1  'x, y, z'
loop_
 _atom_site_type_symbol
 _atom_site_label
 _atom_site_symmetry_multiplicity
 _atom_site_fract_x
 _atom_site_fract_y
 _atom_site_fract_z
 _atom_site_occupancy
  Ag  Ag0  1  0.49999999  0.50000000  0.37500000  1
  Ag  Ag1  1  0.49999999  1.00000000  0.37500000  1
  Ag  Ag2  1  0.99999999  0.50000000  0.37500000  1
  Ag  Ag3  1  0.99999999  1.00000000  0.37500000  1
  Ag  Ag4  1  0.25000000  0.25000001  0.47500000  1
  Ag  Ag5  1  0.25000000  0.75000001  0.47500000  1
  Ag  Ag6  1  0.75000000  0.25000001  0.47500000  1
  Ag  Ag7  1  0.75000000  0.75000001  0.47500000  1
  Ag  Ag8  1  0.49999999  0.50000000  0.57500000  1
  Ag  Ag9  1  0.49999999  1.00000000  0.57500000  1
  Ag  Ag10  1  0.99999999  0.50000000  0.57500000  1
  Ag  Ag11  1  0.99999999  1.00000000  0.57500000  1
  Ag  Ag12  1  0.24999997  0.24999999  0.67664855  1
  Ag  Ag13  1  0.24999994  0.74999999  0.67664855  1
  Ag  Ag14  1  0.74999993  0.25000002  0.67664855  1
  Ag  Ag15  1  0.74999996  0.74999997  0.67664856  1
  Pt  Pt16  1  0.00000002  0.49999999  0.47500000  1
  Pt  Pt17  1  0.00000002  0.99999999  0.47500000  1
  Pt  Pt18  1  0.50000002  0.49999999  0.47500000  1
  Pt  Pt19  1  0.50000002  0.99999999  0.47500000  1
  Pt  Pt20  1  0.25000000  0.25000001  0.37500000  1
  Pt  Pt21  1  0.25000000  0.75000001  0.37500000  1
  Pt  Pt22  1  0.75000000  0.25000001  0.37500000  1
  Pt  Pt23  1  0.75000000  0.75000001  0.37500000  1
  Pt  Pt24  1  0.99999867  0.49999963  0.65662288  1
  Pt  Pt25  1  0.99999869  0.99999956  0.65662304  1
  Pt  Pt26  1  0.49999863  0.49999958  0.65662270  1
  Pt  Pt27  1  0.49999867  0.99999964  0.65662313  1
  Pt  Pt28  1  0.25000000  0.25000001  0.57500000  1
  Pt  Pt29  1  0.25000000  0.75000001  0.57500000  1
  Pt  Pt30  1  0.75000000  0.25000001  0.57500000  1
  Pt  Pt31  1  0.75000000  0.75000001  0.57500000  1
  Sr  Sr32  1  0.49999997  0.25000000  0.32500001  1
  Sr  Sr33  1  0.49999997  0.75000000  0.32500001  1
  Sr  Sr34  1  0.99999997  0.25000000  0.32500001  1
  Sr  Sr35  1  0.99999997  0.75000000  0.32500001  1
  Sr  Sr36  1  0.25000004  0.00000000  0.32499999  1
  Sr  Sr37  1  0.25000004  0.50000000  0.32499999  1
  Sr  Sr38  1  0.75000004  0.00000000  0.32499999  1
  Sr  Sr39  1  0.75000004  0.50000000  0.32499999  1
  Sr  Sr40  1  0.24999997  0.49999996  0.42500001  1
  Sr  Sr41  1  0.24999997  0.99999996  0.42500001  1
  Sr  Sr42  1  0.74999997  0.49999996  0.42500001  1
  Sr  Sr43  1  0.74999997  0.99999996  0.42500001  1
  Sr  Sr44  1  0.00000001  0.25000003  0.42499999  1
  Sr  Sr45  1  0.00000001  0.75000003  0.42499999  1
  Sr  Sr46  1  0.50000001  0.25000003  0.42499999  1
  Sr  Sr47  1  0.50000001  0.75000003  0.42499999  1
  Sr  Sr48  1  0.49999997  0.25000000  0.52500001  1
  Sr  Sr49  1  0.49999997  0.75000000  0.52500001  1
  Sr  Sr50  1  0.99999997  0.25000000  0.52500001  1
  Sr  Sr51  1  0.99999997  0.75000000  0.52500001  1
  Sr  Sr52  1  0.25000004  0.00000000  0.52499999  1
  Sr  Sr53  1  0.25000004  0.50000000  0.52499999  1
  Sr  Sr54  1  0.75000004  0.00000000  0.52499999  1
  Sr  Sr55  1  0.75000004  0.50000000  0.52499999  1
  Sr  Sr56  1  0.25000223  0.49999990  0.62700563  1
  Sr  Sr57  1  0.25000152  0.99999987  0.62700556  1
  Sr  Sr58  1  0.75000119  0.49999986  0.62700562  1
  Sr  Sr59  1  0.75000182  0.99999990  0.62700556  1
  Sr  Sr60  1  0.99999952  0.25000158  0.62700557  1
  Sr  Sr61  1  0.99999956  0.74999946  0.62700555  1
  Sr  Sr62  1  0.49999957  0.25000222  0.62700556  1
  Sr  Sr63  1  0.49999953  0.74999878  0.62700558  1
