# generated using pymatgen
data_Sc2PdRu
_symmetry_space_group_name_H-M   'P 1'
_cell_length_a   9.28520710
_cell_length_b   9.28520530
_cell_length_c   34.11601594
_cell_angle_alpha   90.00001617
_cell_angle_beta   89.99997556
_cell_angle_gamma   120.00001468
_symmetry_Int_Tables_number   1
_chemical_formula_structural   Sc2PdRu
_chemical_formula_sum   'Sc24 Pd12 Ru12'
_cell_volume   2547.25240859
_cell_formula_units_Z   12
loop_
 _symmetry_equiv_pos_site_id
 _symmetry_equiv_pos_as_xyz
  1  'x, y, z'
loop_
 _atom_site_type_symbol
 _atom_site_label
 _atom_site_symmetry_multiplicity
 _atom_site_fract_x
 _atom_site_fract_y
 _atom_site_fract_z
 _atom_site_occupancy
  Pd  Pd0  1  0.45833245  0.41666609  0.64638932  1
  Pd  Pd1  1  0.45833295  0.91666647  0.64638922  1
  Pd  Pd2  1  0.95833370  0.41666656  0.64638945  1
  Pd  Pd3  1  0.95833370  0.91666701  0.64638941  1
  Pd  Pd4  1  0.12499998  0.25000003  0.54166667  1
  Pd  Pd5  1  0.12499998  0.75000003  0.54166667  1
  Pd  Pd6  1  0.62499998  0.25000003  0.54166667  1
  Pd  Pd7  1  0.62499998  0.75000003  0.54166667  1
  Pd  Pd8  1  0.29166665  0.08333336  0.43055556  1
  Pd  Pd9  1  0.29166665  0.58333336  0.43055556  1
  Pd  Pd10  1  0.79166665  0.08333336  0.43055556  1
  Pd  Pd11  1  0.79166665  0.58333336  0.43055556  1
  Ru  Ru12  1  0.29166650  0.08333329  0.59743348  1
  Ru  Ru13  1  0.29166650  0.58333327  0.59743375  1
  Ru  Ru14  1  0.79166671  0.08333339  0.59743380  1
  Ru  Ru15  1  0.79166665  0.58333334  0.59743408  1
  Ru  Ru16  1  0.45833331  0.41666666  0.48611111  1
  Ru  Ru17  1  0.45833331  0.91666666  0.48611111  1
  Ru  Ru18  1  0.95833331  0.41666666  0.48611111  1
  Ru  Ru19  1  0.95833331  0.91666666  0.48611111  1
  Ru  Ru20  1  0.12499997  0.25000000  0.37500000  1
  Ru  Ru21  1  0.12499997  0.75000000  0.37500000  1
  Ru  Ru22  1  0.62499997  0.25000000  0.37500000  1
  Ru  Ru23  1  0.62499997  0.75000000  0.37500000  1
  Sc  Sc24  1  0.12499990  0.25000009  0.62527947  1
  Sc  Sc25  1  0.12499971  0.74999971  0.62527956  1
  Sc  Sc26  1  0.62500027  0.25000039  0.62527952  1
  Sc  Sc27  1  0.62500006  0.74999984  0.62527961  1
  Sc  Sc28  1  0.45833331  0.41666667  0.56944442  1
  Sc  Sc29  1  0.45833331  0.91666667  0.56944442  1
  Sc  Sc30  1  0.95833331  0.41666667  0.56944442  1
  Sc  Sc31  1  0.95833331  0.91666667  0.56944442  1
  Sc  Sc32  1  0.29166673  0.08333331  0.51388891  1
  Sc  Sc33  1  0.29166673  0.58333331  0.51388891  1
  Sc  Sc34  1  0.79166673  0.08333331  0.51388891  1
  Sc  Sc35  1  0.79166673  0.58333331  0.51388891  1
  Sc  Sc36  1  0.12499998  0.25000000  0.45833331  1
  Sc  Sc37  1  0.12499998  0.75000000  0.45833331  1
  Sc  Sc38  1  0.62499998  0.25000000  0.45833331  1
  Sc  Sc39  1  0.62499998  0.75000000  0.45833331  1
  Sc  Sc40  1  0.45833339  0.41666664  0.40277780  1
  Sc  Sc41  1  0.45833339  0.91666664  0.40277780  1
  Sc  Sc42  1  0.95833339  0.41666664  0.40277780  1
  Sc  Sc43  1  0.95833339  0.91666664  0.40277780  1
  Sc  Sc44  1  0.29166665  0.08333333  0.34722220  1
  Sc  Sc45  1  0.29166665  0.58333333  0.34722220  1
  Sc  Sc46  1  0.79166665  0.08333333  0.34722220  1
  Sc  Sc47  1  0.79166665  0.58333333  0.34722220  1
