# generated using pymatgen
data_Sc2CuOs
_symmetry_space_group_name_H-M   'P 1'
_cell_length_a   9.22276321
_cell_length_b   13.04295277
_cell_length_c   36.89105165
_cell_angle_alpha   89.99999324
_cell_angle_beta   90.00003467
_cell_angle_gamma   89.99999249
_symmetry_Int_Tables_number   1
_chemical_formula_structural   Sc2CuOs
_chemical_formula_sum   'Sc48 Cu24 Os24'
_cell_volume   4437.70078141
_cell_formula_units_Z   24
loop_
 _symmetry_equiv_pos_site_id
 _symmetry_equiv_pos_as_xyz
  1  'x, y, z'
loop_
 _atom_site_type_symbol
 _atom_site_label
 _atom_site_symmetry_multiplicity
 _atom_site_fract_x
 _atom_site_fract_y
 _atom_site_fract_z
 _atom_site_occupancy
  Cu  Cu0  1  0.37499998  0.49999999  0.34375000  1
  Cu  Cu1  1  0.37499998  0.99999999  0.34375000  1
  Cu  Cu2  1  0.87499998  0.49999999  0.34375000  1
  Cu  Cu3  1  0.87499998  0.99999999  0.34375000  1
  Cu  Cu4  1  0.12500001  0.25000002  0.40624999  1
  Cu  Cu5  1  0.12500001  0.75000002  0.40624999  1
  Cu  Cu6  1  0.62500001  0.25000002  0.40624999  1
  Cu  Cu7  1  0.62500001  0.75000002  0.40624999  1
  Cu  Cu8  1  0.37499998  0.49999999  0.46875000  1
  Cu  Cu9  1  0.37499998  0.99999999  0.46875000  1
  Cu  Cu10  1  0.87499998  0.49999999  0.46875000  1
  Cu  Cu11  1  0.87499998  0.99999999  0.46875000  1
  Cu  Cu12  1  0.12500001  0.25000002  0.53124999  1
  Cu  Cu13  1  0.12500001  0.75000002  0.53124999  1
  Cu  Cu14  1  0.62500001  0.25000002  0.53124999  1
  Cu  Cu15  1  0.62500001  0.75000002  0.53124999  1
  Cu  Cu16  1  0.37499998  0.49999999  0.59375000  1
  Cu  Cu17  1  0.37499998  0.99999999  0.59375000  1
  Cu  Cu18  1  0.87499998  0.49999999  0.59375000  1
  Cu  Cu19  1  0.87499998  0.99999999  0.59375000  1
  Cu  Cu20  1  0.12500002  0.24999998  0.65268743  1
  Cu  Cu21  1  0.12499982  0.75000001  0.65268750  1
  Cu  Cu22  1  0.62500017  0.25000007  0.65268744  1
  Cu  Cu23  1  0.62500013  0.74999992  0.65268751  1
  Os  Os24  1  0.12500001  0.50000000  0.40625001  1
  Os  Os25  1  0.12500001  1.00000000  0.40625001  1
  Os  Os26  1  0.62500001  0.50000000  0.40625001  1
  Os  Os27  1  0.62500001  1.00000000  0.40625001  1
  Os  Os28  1  0.37500001  0.24999998  0.34375001  1
  Os  Os29  1  0.37500001  0.74999998  0.34375001  1
  Os  Os30  1  0.87500001  0.24999998  0.34375001  1
  Os  Os31  1  0.87500001  0.74999998  0.34375001  1
  Os  Os32  1  0.12500001  0.50000000  0.53125001  1
  Os  Os33  1  0.12500001  1.00000000  0.53125001  1
  Os  Os34  1  0.62500001  0.50000000  0.53125001  1
  Os  Os35  1  0.62500001  1.00000000  0.53125001  1
  Os  Os36  1  0.37500001  0.24999998  0.46875001  1
  Os  Os37  1  0.37500001  0.74999998  0.46875001  1
  Os  Os38  1  0.87500001  0.24999998  0.46875001  1
  Os  Os39  1  0.87500001  0.74999998  0.46875001  1
  Os  Os40  1  0.12499993  0.50000033  0.65087332  1
  Os  Os41  1  0.12500013  0.99999966  0.65087330  1
  Os  Os42  1  0.62500004  0.50000020  0.65087334  1
  Os  Os43  1  0.62500016  0.99999979  0.65087332  1
  Os  Os44  1  0.37500001  0.24999998  0.59375001  1
  Os  Os45  1  0.37500001  0.74999998  0.59375001  1
  Os  Os46  1  0.87500001  0.24999998  0.59375001  1
  Os  Os47  1  0.87500001  0.74999998  0.59375001  1
  Sc  Sc48  1  0.37500000  0.12500018  0.40624999  1
  Sc  Sc49  1  0.37500000  0.62500018  0.40624999  1
  Sc  Sc50  1  0.87500000  0.12500018  0.40624999  1
  Sc  Sc51  1  0.87500000  0.62500018  0.40624999  1
  Sc  Sc52  1  0.12499998  0.12500018  0.34375000  1
  Sc  Sc53  1  0.12499998  0.62500018  0.34375000  1
  Sc  Sc54  1  0.62499998  0.12500018  0.34375000  1
  Sc  Sc55  1  0.62499998  0.62500018  0.34375000  1
  Sc  Sc56  1  0.12500004  0.37499981  0.34375000  1
  Sc  Sc57  1  0.12500004  0.87499981  0.34375000  1
  Sc  Sc58  1  0.62500004  0.37499981  0.34375000  1
  Sc  Sc59  1  0.62500004  0.87499981  0.34375000  1
  Sc  Sc60  1  0.37499997  0.37499985  0.40625000  1
  Sc  Sc61  1  0.37499997  0.87499985  0.40625000  1
  Sc  Sc62  1  0.87499997  0.37499985  0.40625000  1
  Sc  Sc63  1  0.87499997  0.87499985  0.40625000  1
  Sc  Sc64  1  0.37500000  0.12500018  0.53124999  1
  Sc  Sc65  1  0.37500000  0.62500018  0.53124999  1
  Sc  Sc66  1  0.87500000  0.12500018  0.53124999  1
  Sc  Sc67  1  0.87500000  0.62500018  0.53124999  1
  Sc  Sc68  1  0.12499998  0.12500018  0.46875000  1
  Sc  Sc69  1  0.12499998  0.62500018  0.46875000  1
  Sc  Sc70  1  0.62499998  0.12500018  0.46875000  1
  Sc  Sc71  1  0.62499998  0.62500018  0.46875000  1
  Sc  Sc72  1  0.12500004  0.37499981  0.46875000  1
  Sc  Sc73  1  0.12500004  0.87499981  0.46875000  1
  Sc  Sc74  1  0.62500004  0.37499981  0.46875000  1
  Sc  Sc75  1  0.62500004  0.87499981  0.46875000  1
  Sc  Sc76  1  0.37499997  0.37499985  0.53125000  1
  Sc  Sc77  1  0.37499997  0.87499985  0.53125000  1
  Sc  Sc78  1  0.87499997  0.37499985  0.53125000  1
  Sc  Sc79  1  0.87499997  0.87499985  0.53125000  1
  Sc  Sc80  1  0.37500001  0.12097101  0.65645759  1
  Sc  Sc81  1  0.37499997  0.62097130  0.65645750  1
  Sc  Sc82  1  0.87500013  0.12097092  0.65645761  1
  Sc  Sc83  1  0.87499990  0.62097123  0.65645754  1
  Sc  Sc84  1  0.12499998  0.12500018  0.59375000  1
  Sc  Sc85  1  0.12499998  0.62500018  0.59375000  1
  Sc  Sc86  1  0.62499998  0.12500018  0.59375000  1
  Sc  Sc87  1  0.62499998  0.62500018  0.59375000  1
  Sc  Sc88  1  0.12500004  0.37499981  0.59375000  1
  Sc  Sc89  1  0.12500004  0.87499981  0.59375000  1
  Sc  Sc90  1  0.62500004  0.37499981  0.59375000  1
  Sc  Sc91  1  0.62500004  0.87499981  0.59375000  1
  Sc  Sc92  1  0.37500007  0.37902902  0.65645760  1
  Sc  Sc93  1  0.37500017  0.87902876  0.65645751  1
  Sc  Sc94  1  0.87500020  0.37902906  0.65645763  1
  Sc  Sc95  1  0.87500000  0.87902876  0.65645750  1
