# generated using pymatgen
data_Ti2TcPd
_symmetry_space_group_name_H-M   'P 1'
_cell_length_a   8.90273071
_cell_length_b   8.90272822
_cell_length_c   37.77108618
_cell_angle_alpha   89.99999054
_cell_angle_beta   89.99999903
_cell_angle_gamma   89.99998970
_symmetry_Int_Tables_number   1
_chemical_formula_structural   Ti2TcPd
_chemical_formula_sum   'Ti32 Tc16 Pd16'
_cell_volume   2993.68310618
_cell_formula_units_Z   16
loop_
 _symmetry_equiv_pos_site_id
 _symmetry_equiv_pos_as_xyz
  1  'x, y, z'
loop_
 _atom_site_type_symbol
 _atom_site_label
 _atom_site_symmetry_multiplicity
 _atom_site_fract_x
 _atom_site_fract_y
 _atom_site_fract_z
 _atom_site_occupancy
  Pd  Pd0  1  0.00000000  0.00000001  0.39583326  1
  Pd  Pd1  1  0.00000000  0.50000001  0.39583326  1
  Pd  Pd2  1  0.50000000  0.00000001  0.39583326  1
  Pd  Pd3  1  0.50000000  0.50000001  0.39583326  1
  Pd  Pd4  1  0.25000000  0.25000002  0.47916674  1
  Pd  Pd5  1  0.25000000  0.75000002  0.47916674  1
  Pd  Pd6  1  0.75000000  0.25000002  0.47916674  1
  Pd  Pd7  1  0.75000000  0.75000002  0.47916674  1
  Pd  Pd8  1  0.00000000  0.00000001  0.56249992  1
  Pd  Pd9  1  0.00000000  0.50000001  0.56249992  1
  Pd  Pd10  1  0.50000000  0.00000001  0.56249992  1
  Pd  Pd11  1  0.50000000  0.50000001  0.56249992  1
  Pd  Pd12  1  0.25000009  0.25000022  0.64434011  1
  Pd  Pd13  1  0.24999999  0.74999953  0.64434001  1
  Pd  Pd14  1  0.75000002  0.25000021  0.64434040  1
  Pd  Pd15  1  0.75000007  0.74999951  0.64434027  1
  Tc  Tc16  1  0.00000000  0.49999992  0.47916709  1
  Tc  Tc17  1  0.00000000  0.99999992  0.47916709  1
  Tc  Tc18  1  0.50000000  0.49999992  0.47916709  1
  Tc  Tc19  1  0.50000000  0.99999992  0.47916709  1
  Tc  Tc20  1  0.25000001  0.24999999  0.39583292  1
  Tc  Tc21  1  0.25000001  0.74999999  0.39583292  1
  Tc  Tc22  1  0.75000001  0.24999999  0.39583292  1
  Tc  Tc23  1  0.75000001  0.74999999  0.39583292  1
  Tc  Tc24  1  0.00000007  0.49999983  0.63946689  1
  Tc  Tc25  1  1.00000000  0.99999985  0.63946773  1
  Tc  Tc26  1  0.50000003  0.49999983  0.63946688  1
  Tc  Tc27  1  0.50000008  0.99999991  0.63946784  1
  Tc  Tc28  1  0.25000001  0.24999999  0.56249958  1
  Tc  Tc29  1  0.25000001  0.74999999  0.56249958  1
  Tc  Tc30  1  0.75000001  0.24999999  0.56249958  1
  Tc  Tc31  1  0.75000001  0.74999999  0.56249958  1
  Ti  Ti32  1  0.00000005  0.25000004  0.35416668  1
  Ti  Ti33  1  0.00000005  0.75000004  0.35416668  1
  Ti  Ti34  1  0.50000005  0.25000004  0.35416668  1
  Ti  Ti35  1  0.50000005  0.75000004  0.35416668  1
  Ti  Ti36  1  0.25000004  0.00000010  0.35416672  1
  Ti  Ti37  1  0.25000004  0.50000010  0.35416672  1
  Ti  Ti38  1  0.75000004  0.00000010  0.35416672  1
  Ti  Ti39  1  0.75000004  0.50000010  0.35416672  1
  Ti  Ti40  1  0.24999989  0.49999997  0.43749997  1
  Ti  Ti41  1  0.24999989  0.99999997  0.43749997  1
  Ti  Ti42  1  0.74999989  0.49999997  0.43749997  1
  Ti  Ti43  1  0.74999989  0.99999997  0.43749997  1
  Ti  Ti44  1  0.00000001  0.24999995  0.43749997  1
  Ti  Ti45  1  0.00000001  0.74999995  0.43749997  1
  Ti  Ti46  1  0.50000001  0.24999995  0.43749997  1
  Ti  Ti47  1  0.50000001  0.74999995  0.43749997  1
  Ti  Ti48  1  0.00000005  0.25000004  0.52083334  1
  Ti  Ti49  1  0.00000005  0.75000004  0.52083334  1
  Ti  Ti50  1  0.50000005  0.25000004  0.52083334  1
  Ti  Ti51  1  0.50000005  0.75000004  0.52083334  1
  Ti  Ti52  1  0.25000004  0.00000010  0.52083338  1
  Ti  Ti53  1  0.25000004  0.50000010  0.52083338  1
  Ti  Ti54  1  0.75000004  0.00000010  0.52083338  1
  Ti  Ti55  1  0.75000004  0.50000010  0.52083338  1
  Ti  Ti56  1  0.25000010  0.49999976  0.60655892  1
  Ti  Ti57  1  0.24999959  0.00000011  0.60655895  1
  Ti  Ti58  1  0.74999995  0.49999980  0.60655907  1
  Ti  Ti59  1  0.75000047  0.00000004  0.60655905  1
  Ti  Ti60  1  0.99999976  0.24999961  0.60655899  1
  Ti  Ti61  1  0.99999970  0.75000039  0.60655899  1
  Ti  Ti62  1  0.50000036  0.25000012  0.60655896  1
  Ti  Ti63  1  0.50000037  0.74999980  0.60655890  1
