# generated using pymatgen
data_ScCuPd2
_symmetry_space_group_name_H-M   'P 1'
_cell_length_a   9.01838864
_cell_length_b   9.01838893
_cell_length_c   33.13567522
_cell_angle_alpha   90.00002446
_cell_angle_beta   89.99998895
_cell_angle_gamma   119.99999600
_symmetry_Int_Tables_number   1
_chemical_formula_structural   ScCuPd2
_chemical_formula_sum   'Sc12 Cu12 Pd24'
_cell_volume   2333.91148905
_cell_formula_units_Z   12
loop_
 _symmetry_equiv_pos_site_id
 _symmetry_equiv_pos_as_xyz
  1  'x, y, z'
loop_
 _atom_site_type_symbol
 _atom_site_label
 _atom_site_symmetry_multiplicity
 _atom_site_fract_x
 _atom_site_fract_y
 _atom_site_fract_z
 _atom_site_occupancy
  Cu  Cu0  1  0.29166671  0.08333332  0.43345824  1
  Cu  Cu1  1  0.29166671  0.58333332  0.43345824  1
  Cu  Cu2  1  0.79166671  0.08333332  0.43345824  1
  Cu  Cu3  1  0.79166671  0.58333332  0.43345824  1
  Cu  Cu4  1  0.12500002  0.24999999  0.54456932  1
  Cu  Cu5  1  0.12500002  0.74999999  0.54456932  1
  Cu  Cu6  1  0.62500002  0.24999999  0.54456932  1
  Cu  Cu7  1  0.62500002  0.74999999  0.54456932  1
  Cu  Cu8  1  0.45833340  0.41666680  0.65043516  1
  Cu  Cu9  1  0.45833333  0.91666676  0.65043526  1
  Cu  Cu10  1  0.95833324  0.41666682  0.65043517  1
  Cu  Cu11  1  0.95833330  0.91666666  0.65043513  1
  Pd  Pd12  1  0.29166672  0.08333336  0.35012490  1
  Pd  Pd13  1  0.29166672  0.58333336  0.35012490  1
  Pd  Pd14  1  0.79166672  0.08333336  0.35012490  1
  Pd  Pd15  1  0.79166672  0.58333336  0.35012490  1
  Pd  Pd16  1  0.45833334  0.41666668  0.40568045  1
  Pd  Pd17  1  0.45833334  0.91666668  0.40568045  1
  Pd  Pd18  1  0.95833334  0.41666668  0.40568045  1
  Pd  Pd19  1  0.95833334  0.91666668  0.40568045  1
  Pd  Pd20  1  0.12500004  0.25000003  0.46123598  1
  Pd  Pd21  1  0.12500004  0.75000003  0.46123598  1
  Pd  Pd22  1  0.62500004  0.25000003  0.46123598  1
  Pd  Pd23  1  0.62500004  0.75000003  0.46123598  1
  Pd  Pd24  1  0.29166670  0.08333334  0.51679156  1
  Pd  Pd25  1  0.29166670  0.58333334  0.51679156  1
  Pd  Pd26  1  0.79166670  0.08333334  0.51679156  1
  Pd  Pd27  1  0.79166670  0.58333334  0.51679156  1
  Pd  Pd28  1  0.45833336  0.41666669  0.57234712  1
  Pd  Pd29  1  0.45833336  0.91666669  0.57234712  1
  Pd  Pd30  1  0.95833336  0.41666669  0.57234712  1
  Pd  Pd31  1  0.95833336  0.91666669  0.57234712  1
  Pd  Pd32  1  0.12500008  0.24999986  0.62650542  1
  Pd  Pd33  1  0.12499994  0.74999987  0.62650544  1
  Pd  Pd34  1  0.62500001  0.25000003  0.62650536  1
  Pd  Pd35  1  0.62500013  0.74999972  0.62650537  1
  Sc  Sc36  1  0.12500001  0.24999997  0.37790266  1
  Sc  Sc37  1  0.12500001  0.74999997  0.37790266  1
  Sc  Sc38  1  0.62500001  0.24999997  0.37790266  1
  Sc  Sc39  1  0.62500001  0.74999997  0.37790266  1
  Sc  Sc40  1  0.45833333  0.41666664  0.48901379  1
  Sc  Sc41  1  0.45833333  0.91666664  0.48901379  1
  Sc  Sc42  1  0.95833333  0.41666664  0.48901379  1
  Sc  Sc43  1  0.95833333  0.91666664  0.48901379  1
  Sc  Sc44  1  0.29166709  0.08333350  0.60184784  1
  Sc  Sc45  1  0.29166672  0.58333343  0.60184749  1
  Sc  Sc46  1  0.79166728  0.08333453  0.60184765  1
  Sc  Sc47  1  0.79166716  0.58333375  0.60184767  1
