# generated using pymatgen
data_Na3Pt
_symmetry_space_group_name_H-M   'P 1'
_cell_length_a   9.78589440
_cell_length_b   9.78590645
_cell_length_c   39.10306215
_cell_angle_alpha   90.00001265
_cell_angle_beta   89.99999818
_cell_angle_gamma   89.99999163
_symmetry_Int_Tables_number   1
_chemical_formula_structural   Na3Pt
_chemical_formula_sum   'Na48 Pt16'
_cell_volume   3744.65966597
_cell_formula_units_Z   16
loop_
 _symmetry_equiv_pos_site_id
 _symmetry_equiv_pos_as_xyz
  1  'x, y, z'
loop_
 _atom_site_type_symbol
 _atom_site_label
 _atom_site_symmetry_multiplicity
 _atom_site_fract_x
 _atom_site_fract_y
 _atom_site_fract_z
 _atom_site_occupancy
  Na  Na0  1  0.49999993  0.25000000  0.32500002  1
  Na  Na1  1  0.49999993  0.75000000  0.32500002  1
  Na  Na2  1  0.99999993  0.25000000  0.32500002  1
  Na  Na3  1  0.99999993  0.75000000  0.32500002  1
  Na  Na4  1  0.25000001  0.49999997  0.32500002  1
  Na  Na5  1  0.25000001  0.99999997  0.32500002  1
  Na  Na6  1  0.75000001  0.49999997  0.32500002  1
  Na  Na7  1  0.75000001  0.99999997  0.32500002  1
  Na  Na8  1  0.25000008  0.25000000  0.47500000  1
  Na  Na9  1  0.25000008  0.75000000  0.47500000  1
  Na  Na10  1  0.75000008  0.25000000  0.47500000  1
  Na  Na11  1  0.75000008  0.75000000  0.47500000  1
  Na  Na12  1  0.24999997  0.49999995  0.42499998  1
  Na  Na13  1  0.24999997  0.99999995  0.42499998  1
  Na  Na14  1  0.74999997  0.49999995  0.42499998  1
  Na  Na15  1  0.74999997  0.99999995  0.42499998  1
  Na  Na16  1  0.49999992  0.25000000  0.42499999  1
  Na  Na17  1  0.49999992  0.75000000  0.42499999  1
  Na  Na18  1  0.99999992  0.25000000  0.42499999  1
  Na  Na19  1  0.99999992  0.75000000  0.42499999  1
  Na  Na20  1  0.49999996  0.50000000  0.37500000  1
  Na  Na21  1  0.49999996  1.00000000  0.37500000  1
  Na  Na22  1  0.99999996  0.50000000  0.37500000  1
  Na  Na23  1  0.99999996  1.00000000  0.37500000  1
  Na  Na24  1  0.49999993  0.25000000  0.52500002  1
  Na  Na25  1  0.49999993  0.75000000  0.52500002  1
  Na  Na26  1  0.99999993  0.25000000  0.52500002  1
  Na  Na27  1  0.99999993  0.75000000  0.52500002  1
  Na  Na28  1  0.25000001  0.49999997  0.52500002  1
  Na  Na29  1  0.25000001  0.99999997  0.52500002  1
  Na  Na30  1  0.75000001  0.49999997  0.52500002  1
  Na  Na31  1  0.75000001  0.99999997  0.52500002  1
  Na  Na32  1  0.25000025  0.24999970  0.68786148  1
  Na  Na33  1  0.25000015  0.75000022  0.68786134  1
  Na  Na34  1  0.74999986  0.24999987  0.68786168  1
  Na  Na35  1  0.74999993  0.75000011  0.68786165  1
  Na  Na36  1  0.24999588  0.50000003  0.62611127  1
  Na  Na37  1  0.25000694  0.00000001  0.62611155  1
  Na  Na38  1  0.75000460  0.50000005  0.62611124  1
  Na  Na39  1  0.74999347  0.99999999  0.62611150  1
  Na  Na40  1  0.50000011  0.24999324  0.62611147  1
  Na  Na41  1  0.50000010  0.75000697  0.62611148  1
  Na  Na42  1  0.99999980  0.25000435  0.62611123  1
  Na  Na43  1  0.99999981  0.74999590  0.62611125  1
  Na  Na44  1  0.49999996  0.50000000  0.57500000  1
  Na  Na45  1  0.49999996  1.00000000  0.57500000  1
  Na  Na46  1  0.99999996  0.50000000  0.57500000  1
  Na  Na47  1  0.99999996  1.00000000  0.57500000  1
  Pt  Pt48  1  0.00000009  0.00000010  0.47500001  1
  Pt  Pt49  1  0.00000009  0.50000010  0.47500001  1
  Pt  Pt50  1  0.50000009  0.00000010  0.47500001  1
  Pt  Pt51  1  0.50000009  0.50000010  0.47500001  1
  Pt  Pt52  1  0.25000004  0.24999998  0.37499999  1
  Pt  Pt53  1  0.25000004  0.74999998  0.37499999  1
  Pt  Pt54  1  0.75000004  0.24999998  0.37499999  1
  Pt  Pt55  1  0.75000004  0.74999998  0.37499999  1
  Pt  Pt56  1  0.99999979  0.00000007  0.66841227  1
  Pt  Pt57  1  0.99999976  0.50000007  0.66841056  1
  Pt  Pt58  1  0.49999988  0.00000009  0.66840930  1
  Pt  Pt59  1  0.49999988  0.50000007  0.66841232  1
  Pt  Pt60  1  0.25000004  0.24999998  0.57499999  1
  Pt  Pt61  1  0.25000004  0.74999998  0.57499999  1
  Pt  Pt62  1  0.75000004  0.24999998  0.57499999  1
  Pt  Pt63  1  0.75000004  0.74999998  0.57499999  1
