# generated using pymatgen
data_CuAg3
_symmetry_space_group_name_H-M   'P 1'
_cell_length_a   10.06251139
_cell_length_b   14.95456687
_cell_length_c   65.90180624
_cell_angle_alpha   50.98359162
_cell_angle_beta   90.00001224
_cell_angle_gamma   47.71088274
_symmetry_Int_Tables_number   1
_chemical_formula_structural   CuAg3
_chemical_formula_sum   'Cu20 Ag60'
_cell_volume   3852.55793102
_cell_formula_units_Z   20
loop_
 _symmetry_equiv_pos_site_id
 _symmetry_equiv_pos_as_xyz
  1  'x, y, z'
loop_
 _atom_site_type_symbol
 _atom_site_label
 _atom_site_symmetry_multiplicity
 _atom_site_fract_x
 _atom_site_fract_y
 _atom_site_fract_z
 _atom_site_occupancy
  Cu  Cu0  1  0.33333331  0.00000000  0.33928571  1
  Cu  Cu1  1  0.33333331  0.50000000  0.33928571  1
  Cu  Cu2  1  0.66666672  0.49999999  0.37500000  1
  Cu  Cu3  1  0.66666672  0.99999999  0.37500000  1
  Cu  Cu4  1  0.33333331  0.00000000  0.41071428  1
  Cu  Cu5  1  0.33333331  0.50000000  0.41071428  1
  Cu  Cu6  1  0.66666672  0.49999999  0.44642857  1
  Cu  Cu7  1  0.66666672  0.99999999  0.44642857  1
  Cu  Cu8  1  0.33333331  0.00000000  0.48214285  1
  Cu  Cu9  1  0.33333331  0.50000000  0.48214285  1
  Cu  Cu10  1  0.66666672  0.49999999  0.51785715  1
  Cu  Cu11  1  0.66666672  0.99999999  0.51785715  1
  Cu  Cu12  1  0.33333331  0.00000000  0.55357143  1
  Cu  Cu13  1  0.33333331  0.50000000  0.55357143  1
  Cu  Cu14  1  0.66666672  0.49999999  0.58928572  1
  Cu  Cu15  1  0.66666672  0.99999999  0.58928572  1
  Cu  Cu16  1  0.31671783  0.01575882  0.62275689  1
  Cu  Cu17  1  0.31671783  0.51575890  0.62275689  1
  Cu  Cu18  1  0.62880579  0.53690144  0.65343281  1
  Cu  Cu19  1  0.62880580  0.03690142  0.65343281  1
  Ag  Ag20  1  0.16942266  0.24586598  0.33987629  1
  Ag  Ag21  1  0.16942266  0.74586598  0.33987629  1
  Ag  Ag22  1  0.16942268  0.00000001  0.37500000  1
  Ag  Ag23  1  0.16942268  0.50000001  0.37500000  1
  Ag  Ag24  1  0.66115462  0.25413406  0.33869513  1
  Ag  Ag25  1  0.66115462  0.75413406  0.33869513  1
  Ag  Ag26  1  0.83057743  0.25413390  0.37440945  1
  Ag  Ag27  1  0.83057743  0.75413390  0.37440945  1
  Ag  Ag28  1  0.83057735  0.00000001  0.33928571  1
  Ag  Ag29  1  0.83057735  0.50000001  0.33928571  1
  Ag  Ag30  1  0.33884524  0.24586605  0.37559057  1
  Ag  Ag31  1  0.33884524  0.74586605  0.37559057  1
  Ag  Ag32  1  0.16942266  0.24586598  0.41130486  1
  Ag  Ag33  1  0.16942266  0.74586598  0.41130486  1
  Ag  Ag34  1  0.16942268  0.00000001  0.44642857  1
  Ag  Ag35  1  0.16942268  0.50000001  0.44642857  1
  Ag  Ag36  1  0.66115462  0.25413406  0.41012370  1
  Ag  Ag37  1  0.66115462  0.75413406  0.41012370  1
  Ag  Ag38  1  0.83057743  0.25413390  0.44583802  1
  Ag  Ag39  1  0.83057743  0.75413390  0.44583802  1
  Ag  Ag40  1  0.83057735  0.00000001  0.41071428  1
  Ag  Ag41  1  0.83057735  0.50000001  0.41071428  1
  Ag  Ag42  1  0.33884524  0.24586605  0.44701914  1
  Ag  Ag43  1  0.33884524  0.74586605  0.44701914  1
  Ag  Ag44  1  0.16942266  0.24586598  0.48273343  1
  Ag  Ag45  1  0.16942266  0.74586598  0.48273343  1
  Ag  Ag46  1  0.16942268  0.00000001  0.51785714  1
  Ag  Ag47  1  0.16942268  0.50000001  0.51785714  1
  Ag  Ag48  1  0.66115462  0.25413406  0.48155227  1
  Ag  Ag49  1  0.66115462  0.75413406  0.48155227  1
  Ag  Ag50  1  0.83057743  0.25413390  0.51726659  1
  Ag  Ag51  1  0.83057743  0.75413390  0.51726659  1
  Ag  Ag52  1  0.83057735  0.00000001  0.48214285  1
  Ag  Ag53  1  0.83057735  0.50000001  0.48214285  1
  Ag  Ag54  1  0.33884524  0.24586605  0.51844771  1
  Ag  Ag55  1  0.33884524  0.74586605  0.51844771  1
  Ag  Ag56  1  0.16942266  0.24586598  0.55416200  1
  Ag  Ag57  1  0.16942266  0.74586598  0.55416200  1
  Ag  Ag58  1  0.16942268  0.00000001  0.58928571  1
  Ag  Ag59  1  0.16942268  0.50000001  0.58928571  1
  Ag  Ag60  1  0.66115462  0.25413406  0.55298085  1
  Ag  Ag61  1  0.66115462  0.75413406  0.55298085  1
  Ag  Ag62  1  0.83057743  0.25413390  0.58869516  1
  Ag  Ag63  1  0.83057743  0.75413390  0.58869516  1
  Ag  Ag64  1  0.83057735  0.00000001  0.55357143  1
  Ag  Ag65  1  0.83057735  0.50000001  0.55357143  1
  Ag  Ag66  1  0.33884524  0.24586605  0.58987628  1
  Ag  Ag67  1  0.33884524  0.74586605  0.58987628  1
  Ag  Ag68  1  0.18177741  0.23441037  0.62757069  1
  Ag  Ag69  1  0.18177739  0.73441037  0.62757068  1
  Ag  Ag70  1  0.14940762  0.01588950  0.65819944  1
  Ag  Ag71  1  0.14940758  0.51588957  0.65819944  1
  Ag  Ag72  1  0.66715209  0.24429552  0.62710742  1
  Ag  Ag73  1  0.66715215  0.74429547  0.62710740  1
  Ag  Ag74  1  0.81116689  0.26725178  0.65883087  1
  Ag  Ag75  1  0.81116679  0.76725175  0.65883087  1
  Ag  Ag76  1  0.84348824  0.99154275  0.62681875  1
  Ag  Ag77  1  0.84348842  0.49154267  0.62681876  1
  Ag  Ag78  1  0.35429939  0.24739235  0.66035313  1
  Ag  Ag79  1  0.35429949  0.74739224  0.66035313  1
