# generated using pymatgen
data_Sc2AlCu
_symmetry_space_group_name_H-M   'P 1'
_cell_length_a   9.56129117
_cell_length_b   13.52168657
_cell_length_c   38.24505366
_cell_angle_alpha   89.99997864
_cell_angle_beta   89.99999113
_cell_angle_gamma   90.00000254
_symmetry_Int_Tables_number   1
_chemical_formula_structural   Sc2AlCu
_chemical_formula_sum   'Sc48 Al24 Cu24'
_cell_volume   4944.50344051
_cell_formula_units_Z   24
loop_
 _symmetry_equiv_pos_site_id
 _symmetry_equiv_pos_as_xyz
  1  'x, y, z'
loop_
 _atom_site_type_symbol
 _atom_site_label
 _atom_site_symmetry_multiplicity
 _atom_site_fract_x
 _atom_site_fract_y
 _atom_site_fract_z
 _atom_site_occupancy
  Al  Al0  1  0.37500004  0.00000385  0.66056416  1
  Al  Al1  1  0.37500004  0.49999606  0.66056404  1
  Al  Al2  1  0.87500002  0.00000389  0.66056415  1
  Al  Al3  1  0.87500000  0.49999608  0.66056404  1
  Al  Al4  1  0.12500002  0.24999994  0.59375000  1
  Al  Al5  1  0.12500002  0.74999994  0.59375000  1
  Al  Al6  1  0.62500002  0.24999994  0.59375000  1
  Al  Al7  1  0.62500002  0.74999994  0.59375000  1
  Al  Al8  1  0.37499998  0.00000005  0.53125002  1
  Al  Al9  1  0.37499998  0.50000005  0.53125002  1
  Al  Al10  1  0.87499998  0.00000005  0.53125002  1
  Al  Al11  1  0.87499998  0.50000005  0.53125002  1
  Al  Al12  1  0.12500002  0.24999994  0.46875000  1
  Al  Al13  1  0.12500002  0.74999994  0.46875000  1
  Al  Al14  1  0.62500002  0.24999994  0.46875000  1
  Al  Al15  1  0.62500002  0.74999994  0.46875000  1
  Al  Al16  1  0.37499998  0.00000005  0.40625002  1
  Al  Al17  1  0.37499998  0.50000005  0.40625002  1
  Al  Al18  1  0.87499998  0.00000005  0.40625002  1
  Al  Al19  1  0.87499998  0.50000005  0.40625002  1
  Al  Al20  1  0.12500002  0.24999994  0.34375000  1
  Al  Al21  1  0.12500002  0.74999994  0.34375000  1
  Al  Al22  1  0.62500002  0.24999994  0.34375000  1
  Al  Al23  1  0.62500002  0.74999994  0.34375000  1
  Cu  Cu24  1  0.12499993  0.00000007  0.59375000  1
  Cu  Cu25  1  0.12499993  0.50000007  0.59375000  1
  Cu  Cu26  1  0.62499993  0.00000007  0.59375000  1
  Cu  Cu27  1  0.62499993  0.50000007  0.59375000  1
  Cu  Cu28  1  0.37499994  0.25000227  0.64836437  1
  Cu  Cu29  1  0.37499995  0.74999773  0.64836437  1
  Cu  Cu30  1  0.87500000  0.25000219  0.64836435  1
  Cu  Cu31  1  0.87500001  0.74999773  0.64836435  1
  Cu  Cu32  1  0.12499993  0.00000007  0.46875000  1
  Cu  Cu33  1  0.12499993  0.50000007  0.46875000  1
  Cu  Cu34  1  0.62499993  0.00000007  0.46875000  1
  Cu  Cu35  1  0.62499993  0.50000007  0.46875000  1
  Cu  Cu36  1  0.37500003  0.24999997  0.53125001  1
  Cu  Cu37  1  0.37500003  0.74999997  0.53125001  1
  Cu  Cu38  1  0.87500003  0.24999997  0.53125001  1
  Cu  Cu39  1  0.87500003  0.74999997  0.53125001  1
  Cu  Cu40  1  0.12499993  0.00000007  0.34375000  1
  Cu  Cu41  1  0.12499993  0.50000007  0.34375000  1
  Cu  Cu42  1  0.62499993  0.00000007  0.34375000  1
  Cu  Cu43  1  0.62499993  0.50000007  0.34375000  1
  Cu  Cu44  1  0.37500003  0.24999997  0.40625001  1
  Cu  Cu45  1  0.37500003  0.74999997  0.40625001  1
  Cu  Cu46  1  0.87500003  0.24999997  0.40625001  1
  Cu  Cu47  1  0.87500003  0.74999997  0.40625001  1
  Sc  Sc48  1  0.37500007  0.12500013  0.59375000  1
  Sc  Sc49  1  0.37500007  0.62500013  0.59375000  1
  Sc  Sc50  1  0.87500007  0.12500013  0.59375000  1
  Sc  Sc51  1  0.87500007  0.62500013  0.59375000  1
  Sc  Sc52  1  0.12500001  0.12214687  0.65582054  1
  Sc  Sc53  1  0.12500001  0.62214506  0.65582083  1
  Sc  Sc54  1  0.62500003  0.12214695  0.65582054  1
  Sc  Sc55  1  0.62499999  0.62214508  0.65582086  1
  Sc  Sc56  1  0.12499996  0.37784988  0.65582043  1
  Sc  Sc57  1  0.12499997  0.87785807  0.65582090  1
  Sc  Sc58  1  0.62500001  0.37784989  0.65582044  1
  Sc  Sc59  1  0.62500003  0.87785805  0.65582092  1
  Sc  Sc60  1  0.37499996  0.37499993  0.59375001  1
  Sc  Sc61  1  0.37499996  0.87499993  0.59375001  1
  Sc  Sc62  1  0.87499996  0.37499993  0.59375001  1
  Sc  Sc63  1  0.87499996  0.87499993  0.59375001  1
  Sc  Sc64  1  0.37500007  0.12500013  0.46875000  1
  Sc  Sc65  1  0.37500007  0.62500013  0.46875000  1
  Sc  Sc66  1  0.87500007  0.12500013  0.46875000  1
  Sc  Sc67  1  0.87500007  0.62500013  0.46875000  1
  Sc  Sc68  1  0.12499995  0.12500009  0.53124998  1
  Sc  Sc69  1  0.12499995  0.62500009  0.53124998  1
  Sc  Sc70  1  0.62499995  0.12500009  0.53124998  1
  Sc  Sc71  1  0.62499995  0.62500009  0.53124998  1
  Sc  Sc72  1  0.12500007  0.37499981  0.53124999  1
  Sc  Sc73  1  0.12500007  0.87499981  0.53124999  1
  Sc  Sc74  1  0.62500007  0.37499981  0.53124999  1
  Sc  Sc75  1  0.62500007  0.87499981  0.53124999  1
  Sc  Sc76  1  0.37499996  0.37499993  0.46875001  1
  Sc  Sc77  1  0.37499996  0.87499993  0.46875001  1
  Sc  Sc78  1  0.87499996  0.37499993  0.46875001  1
  Sc  Sc79  1  0.87499996  0.87499993  0.46875001  1
  Sc  Sc80  1  0.37500007  0.12500013  0.34375000  1
  Sc  Sc81  1  0.37500007  0.62500013  0.34375000  1
  Sc  Sc82  1  0.87500007  0.12500013  0.34375000  1
  Sc  Sc83  1  0.87500007  0.62500013  0.34375000  1
  Sc  Sc84  1  0.12499995  0.12500009  0.40624998  1
  Sc  Sc85  1  0.12499995  0.62500009  0.40624998  1
  Sc  Sc86  1  0.62499995  0.12500009  0.40624998  1
  Sc  Sc87  1  0.62499995  0.62500009  0.40624998  1
  Sc  Sc88  1  0.12500007  0.37499981  0.40624999  1
  Sc  Sc89  1  0.12500007  0.87499981  0.40624999  1
  Sc  Sc90  1  0.62500007  0.37499981  0.40624999  1
  Sc  Sc91  1  0.62500007  0.87499981  0.40624999  1
  Sc  Sc92  1  0.37499996  0.37499993  0.34375001  1
  Sc  Sc93  1  0.37499996  0.87499993  0.34375001  1
  Sc  Sc94  1  0.87499996  0.37499993  0.34375001  1
  Sc  Sc95  1  0.87499996  0.87499993  0.34375001  1
