# generated using pymatgen
data_Na3Pt
_symmetry_space_group_name_H-M   'P 1'
_cell_length_a   9.78590645
_cell_length_b   15.64122486
_cell_length_c   39.14357758
_cell_angle_alpha   89.99999817
_cell_angle_beta   89.99999163
_cell_angle_gamma   90.00001264
_symmetry_Int_Tables_number   1
_chemical_formula_structural   Na3Pt
_chemical_formula_sum   'Na72 Pt24'
_cell_volume   5991.45546249
_cell_formula_units_Z   24
loop_
 _symmetry_equiv_pos_site_id
 _symmetry_equiv_pos_as_xyz
  1  'x, y, z'
loop_
 _atom_site_type_symbol
 _atom_site_label
 _atom_site_symmetry_multiplicity
 _atom_site_fract_x
 _atom_site_fract_y
 _atom_site_fract_z
 _atom_site_occupancy
  Na  Na0  1  0.25000000  0.12500004  0.40624998  1
  Na  Na1  1  0.25000000  0.62500004  0.40624998  1
  Na  Na2  1  0.75000000  0.12500004  0.40624998  1
  Na  Na3  1  0.75000000  0.62500004  0.40624998  1
  Na  Na4  1  0.49999997  0.12500005  0.34375000  1
  Na  Na5  1  0.49999997  0.62500005  0.34375000  1
  Na  Na6  1  0.99999997  0.12500005  0.34375000  1
  Na  Na7  1  0.99999997  0.62500005  0.34375000  1
  Na  Na8  1  0.25000000  0.50000000  0.34375002  1
  Na  Na9  1  0.25000000  1.00000000  0.34375002  1
  Na  Na10  1  0.75000000  0.50000000  0.34375002  1
  Na  Na11  1  0.75000000  1.00000000  0.34375002  1
  Na  Na12  1  0.49999995  0.37499995  0.34374999  1
  Na  Na13  1  0.49999995  0.87499995  0.34374999  1
  Na  Na14  1  0.99999995  0.37499995  0.34374999  1
  Na  Na15  1  0.99999995  0.87499995  0.34374999  1
  Na  Na16  1  0.25000000  0.37499996  0.40624998  1
  Na  Na17  1  0.25000000  0.87499996  0.40624998  1
  Na  Na18  1  0.75000000  0.37499996  0.40624998  1
  Na  Na19  1  0.75000000  0.87499996  0.40624998  1
  Na  Na20  1  0.50000000  0.25000001  0.40624999  1
  Na  Na21  1  0.50000000  0.75000001  0.40624999  1
  Na  Na22  1  1.00000000  0.25000001  0.40624999  1
  Na  Na23  1  1.00000000  0.75000001  0.40624999  1
  Na  Na24  1  0.25000000  0.12500004  0.53124998  1
  Na  Na25  1  0.25000000  0.62500004  0.53124998  1
  Na  Na26  1  0.75000000  0.12500004  0.53124998  1
  Na  Na27  1  0.75000000  0.62500004  0.53124998  1
  Na  Na28  1  0.49999997  0.12500005  0.46875000  1
  Na  Na29  1  0.49999997  0.62500005  0.46875000  1
  Na  Na30  1  0.99999997  0.12500005  0.46875000  1
  Na  Na31  1  0.99999997  0.62500005  0.46875000  1
  Na  Na32  1  0.25000000  0.50000000  0.46875002  1
  Na  Na33  1  0.25000000  1.00000000  0.46875002  1
  Na  Na34  1  0.75000000  0.50000000  0.46875002  1
  Na  Na35  1  0.75000000  1.00000000  0.46875002  1
  Na  Na36  1  0.49999995  0.37499995  0.46874999  1
  Na  Na37  1  0.49999995  0.87499995  0.46874999  1
  Na  Na38  1  0.99999995  0.37499995  0.46874999  1
  Na  Na39  1  0.99999995  0.87499995  0.46874999  1
  Na  Na40  1  0.25000000  0.37499996  0.53124998  1
  Na  Na41  1  0.25000000  0.87499996  0.53124998  1
  Na  Na42  1  0.75000000  0.37499996  0.53124998  1
  Na  Na43  1  0.75000000  0.87499996  0.53124998  1
  Na  Na44  1  0.50000000  0.25000001  0.53124999  1
  Na  Na45  1  0.50000000  0.75000001  0.53124999  1
  Na  Na46  1  1.00000000  0.25000001  0.53124999  1
  Na  Na47  1  1.00000000  0.75000001  0.53124999  1
  Na  Na48  1  0.24999999  0.10819267  0.66437728  1
  Na  Na49  1  0.24999999  0.60819272  0.66437725  1
  Na  Na50  1  0.74999996  0.10819261  0.66437729  1
  Na  Na51  1  0.74999996  0.60819268  0.66437726  1
  Na  Na52  1  0.49999997  0.12500005  0.59375000  1
  Na  Na53  1  0.49999997  0.62500005  0.59375000  1
  Na  Na54  1  0.99999997  0.12500005  0.59375000  1
  Na  Na55  1  0.99999997  0.62500005  0.59375000  1
  Na  Na56  1  0.25000000  0.50000000  0.59375002  1
  Na  Na57  1  0.25000000  1.00000000  0.59375002  1
  Na  Na58  1  0.75000000  0.50000000  0.59375002  1
  Na  Na59  1  0.75000000  1.00000000  0.59375002  1
  Na  Na60  1  0.49999995  0.37499995  0.59374999  1
  Na  Na61  1  0.49999995  0.87499995  0.59374999  1
  Na  Na62  1  0.99999995  0.37499995  0.59374999  1
  Na  Na63  1  0.99999995  0.87499995  0.59374999  1
  Na  Na64  1  0.24999994  0.39180723  0.66437737  1
  Na  Na65  1  0.24999994  0.89180715  0.66437733  1
  Na  Na66  1  0.74999998  0.39180728  0.66437739  1
  Na  Na67  1  0.74999997  0.89180720  0.66437735  1
  Na  Na68  1  0.50000005  0.25000002  0.65260119  1
  Na  Na69  1  0.50000006  0.75000001  0.65260122  1
  Na  Na70  1  0.99999997  0.24999999  0.65260120  1
  Na  Na71  1  0.99999997  0.74999999  0.65260122  1
  Pt  Pt72  1  0.00000010  0.00000002  0.40625002  1
  Pt  Pt73  1  0.00000010  0.50000002  0.40625002  1
  Pt  Pt74  1  0.50000010  0.00000002  0.40625002  1
  Pt  Pt75  1  0.50000010  0.50000002  0.40625002  1
  Pt  Pt76  1  0.24999998  0.24999998  0.34375001  1
  Pt  Pt77  1  0.24999998  0.74999998  0.34375001  1
  Pt  Pt78  1  0.74999998  0.24999998  0.34375001  1
  Pt  Pt79  1  0.74999998  0.74999998  0.34375001  1
  Pt  Pt80  1  0.00000010  0.00000002  0.53125002  1
  Pt  Pt81  1  0.00000010  0.50000002  0.53125002  1
  Pt  Pt82  1  0.50000010  0.00000002  0.53125002  1
  Pt  Pt83  1  0.50000010  0.50000002  0.53125002  1
  Pt  Pt84  1  0.24999998  0.24999998  0.46875001  1
  Pt  Pt85  1  0.24999998  0.74999998  0.46875001  1
  Pt  Pt86  1  0.74999998  0.24999998  0.46875001  1
  Pt  Pt87  1  0.74999998  0.74999998  0.46875001  1
  Pt  Pt88  1  0.00000005  0.99999996  0.64894457  1
  Pt  Pt89  1  0.00000003  0.50000004  0.64894457  1
  Pt  Pt90  1  0.49999992  0.99999995  0.64894459  1
  Pt  Pt91  1  0.49999992  0.50000002  0.64894459  1
  Pt  Pt92  1  0.24999998  0.24999998  0.59375001  1
  Pt  Pt93  1  0.24999998  0.74999998  0.59375001  1
  Pt  Pt94  1  0.74999998  0.24999998  0.59375001  1
  Pt  Pt95  1  0.74999998  0.74999998  0.59375001  1
