# generated using pymatgen
data_Sc2ZnCu
_symmetry_space_group_name_H-M   'P 1'
_cell_length_a   9.46850376
_cell_length_b   9.46850737
_cell_length_c   34.78949106
_cell_angle_alpha   89.99996248
_cell_angle_beta   89.99997083
_cell_angle_gamma   59.99993765
_symmetry_Int_Tables_number   1
_chemical_formula_structural   Sc2ZnCu
_chemical_formula_sum   'Sc24 Zn12 Cu12'
_cell_volume   2701.10403694
_cell_formula_units_Z   12
loop_
 _symmetry_equiv_pos_site_id
 _symmetry_equiv_pos_as_xyz
  1  'x, y, z'
loop_
 _atom_site_type_symbol
 _atom_site_label
 _atom_site_symmetry_multiplicity
 _atom_site_fract_x
 _atom_site_fract_y
 _atom_site_fract_z
 _atom_site_occupancy
  Cu  Cu0  1  0.41664479  0.04167753  0.64152736  1
  Cu  Cu1  1  0.41664435  0.54167683  0.64152737  1
  Cu  Cu2  1  0.91664458  0.04167741  0.64152715  1
  Cu  Cu3  1  0.91664544  0.54167625  0.64152720  1
  Cu  Cu4  1  0.25000000  0.37500001  0.54166666  1
  Cu  Cu5  1  0.25000000  0.87500001  0.54166666  1
  Cu  Cu6  1  0.75000000  0.37500001  0.54166666  1
  Cu  Cu7  1  0.75000000  0.87500001  0.54166666  1
  Cu  Cu8  1  0.08333334  0.20833334  0.43055555  1
  Cu  Cu9  1  0.08333334  0.70833334  0.43055555  1
  Cu  Cu10  1  0.58333334  0.20833334  0.43055555  1
  Cu  Cu11  1  0.58333334  0.70833334  0.43055555  1
  Sc  Sc12  1  0.25003164  0.37498353  0.62491783  1
  Sc  Sc13  1  0.25002982  0.87498450  0.62491778  1
  Sc  Sc14  1  0.75003456  0.37498061  0.62491747  1
  Sc  Sc15  1  0.75003297  0.87498464  0.62491752  1
  Sc  Sc16  1  0.41666667  0.04166666  0.56944444  1
  Sc  Sc17  1  0.41666667  0.54166666  0.56944444  1
  Sc  Sc18  1  0.91666667  0.04166666  0.56944444  1
  Sc  Sc19  1  0.91666667  0.54166666  0.56944444  1
  Sc  Sc20  1  0.08333332  0.20833334  0.51388890  1
  Sc  Sc21  1  0.08333332  0.70833334  0.51388890  1
  Sc  Sc22  1  0.58333332  0.20833334  0.51388890  1
  Sc  Sc23  1  0.58333332  0.70833334  0.51388890  1
  Sc  Sc24  1  0.25000000  0.37499999  0.45833333  1
  Sc  Sc25  1  0.25000000  0.87499999  0.45833333  1
  Sc  Sc26  1  0.75000000  0.37499999  0.45833333  1
  Sc  Sc27  1  0.75000000  0.87499999  0.45833333  1
  Sc  Sc28  1  0.41666665  0.04166668  0.40277779  1
  Sc  Sc29  1  0.41666665  0.54166668  0.40277779  1
  Sc  Sc30  1  0.91666665  0.04166668  0.40277779  1
  Sc  Sc31  1  0.91666665  0.54166668  0.40277779  1
  Sc  Sc32  1  0.08333334  0.20833332  0.34722222  1
  Sc  Sc33  1  0.08333334  0.70833332  0.34722222  1
  Sc  Sc34  1  0.58333334  0.20833332  0.34722222  1
  Sc  Sc35  1  0.58333334  0.70833332  0.34722222  1
  Zn  Zn36  1  0.08338496  0.20830725  0.60512219  1
  Zn  Zn37  1  0.08338568  0.70830805  0.60512212  1
  Zn  Zn38  1  0.58338655  0.20830653  0.60512227  1
  Zn  Zn39  1  0.58338546  0.70830777  0.60512215  1
  Zn  Zn40  1  0.41666668  0.04166666  0.48611111  1
  Zn  Zn41  1  0.41666668  0.54166666  0.48611111  1
  Zn  Zn42  1  0.91666668  0.04166666  0.48611111  1
  Zn  Zn43  1  0.91666668  0.54166666  0.48611111  1
  Zn  Zn44  1  0.25000001  0.37499999  0.37499999  1
  Zn  Zn45  1  0.25000001  0.87499999  0.37499999  1
  Zn  Zn46  1  0.75000001  0.37499999  0.37499999  1
  Zn  Zn47  1  0.75000001  0.87499999  0.37499999  1
