# generated using pymatgen
data_Sc2GaPt
_symmetry_space_group_name_H-M   'P 1'
_cell_length_a   9.52239408
_cell_length_b   9.52238785
_cell_length_c   33.66676128
_cell_angle_alpha   89.99996661
_cell_angle_beta   89.99997491
_cell_angle_gamma   89.99999639
_symmetry_Int_Tables_number   1
_chemical_formula_structural   Sc2GaPt
_chemical_formula_sum   'Sc32 Ga16 Pt16'
_cell_volume   3052.76487873
_cell_formula_units_Z   16
loop_
 _symmetry_equiv_pos_site_id
 _symmetry_equiv_pos_as_xyz
  1  'x, y, z'
loop_
 _atom_site_type_symbol
 _atom_site_label
 _atom_site_symmetry_multiplicity
 _atom_site_fract_x
 _atom_site_fract_y
 _atom_site_fract_z
 _atom_site_occupancy
  Ga  Ga0  1  0.50000000  0.49999998  0.37500001  1
  Ga  Ga1  1  0.50000000  0.99999998  0.37500001  1
  Ga  Ga2  1  1.00000000  0.49999998  0.37500001  1
  Ga  Ga3  1  1.00000000  0.99999998  0.37500001  1
  Ga  Ga4  1  0.24999999  0.25000000  0.47500001  1
  Ga  Ga5  1  0.24999999  0.75000000  0.47500001  1
  Ga  Ga6  1  0.74999999  0.25000000  0.47500001  1
  Ga  Ga7  1  0.74999999  0.75000000  0.47500001  1
  Ga  Ga8  1  0.50000000  0.49999998  0.57500001  1
  Ga  Ga9  1  0.50000000  0.99999998  0.57500001  1
  Ga  Ga10  1  1.00000000  0.49999998  0.57500001  1
  Ga  Ga11  1  1.00000000  0.99999998  0.57500001  1
  Ga  Ga12  1  0.24999905  0.24999964  0.67905235  1
  Ga  Ga13  1  0.25000025  0.75000047  0.67905249  1
  Ga  Ga14  1  0.75000017  0.25000046  0.67905260  1
  Ga  Ga15  1  0.75000003  0.75000009  0.67905212  1
  Pt  Pt16  1  0.49999993  0.49999995  0.47500000  1
  Pt  Pt17  1  0.49999993  0.99999995  0.47500000  1
  Pt  Pt18  1  0.99999993  0.49999995  0.47500000  1
  Pt  Pt19  1  0.99999993  0.99999995  0.47500000  1
  Pt  Pt20  1  0.25000008  0.24999993  0.37499991  1
  Pt  Pt21  1  0.25000008  0.74999993  0.37499991  1
  Pt  Pt22  1  0.75000008  0.24999993  0.37499991  1
  Pt  Pt23  1  0.75000008  0.74999993  0.37499991  1
  Pt  Pt24  1  0.49999974  0.49999832  0.66341324  1
  Pt  Pt25  1  0.50000226  0.99999920  0.66341366  1
  Pt  Pt26  1  0.99999849  0.49999930  0.66341390  1
  Pt  Pt27  1  0.00000058  0.00000057  0.66341041  1
  Pt  Pt28  1  0.25000008  0.24999993  0.57499991  1
  Pt  Pt29  1  0.25000008  0.74999993  0.57499991  1
  Pt  Pt30  1  0.75000008  0.24999993  0.57499991  1
  Pt  Pt31  1  0.75000008  0.74999993  0.57499991  1
  Sc  Sc32  1  0.49999997  0.25000005  0.32500001  1
  Sc  Sc33  1  0.49999997  0.75000005  0.32500001  1
  Sc  Sc34  1  0.99999997  0.25000005  0.32500001  1
  Sc  Sc35  1  0.99999997  0.75000005  0.32500001  1
  Sc  Sc36  1  0.25000010  0.00000009  0.32500002  1
  Sc  Sc37  1  0.25000010  0.50000009  0.32500002  1
  Sc  Sc38  1  0.75000010  0.00000009  0.32500002  1
  Sc  Sc39  1  0.75000010  0.50000009  0.32500002  1
  Sc  Sc40  1  0.25000002  0.00000007  0.42500005  1
  Sc  Sc41  1  0.25000002  0.50000007  0.42500005  1
  Sc  Sc42  1  0.75000002  0.00000007  0.42500005  1
  Sc  Sc43  1  0.75000002  0.50000007  0.42500005  1
  Sc  Sc44  1  0.49999991  0.24999993  0.42499999  1
  Sc  Sc45  1  0.49999991  0.74999993  0.42499999  1
  Sc  Sc46  1  0.99999991  0.24999993  0.42499999  1
  Sc  Sc47  1  0.99999991  0.74999993  0.42499999  1
  Sc  Sc48  1  0.49999997  0.25000005  0.52500001  1
  Sc  Sc49  1  0.49999997  0.75000005  0.52500001  1
  Sc  Sc50  1  0.99999997  0.25000005  0.52500001  1
  Sc  Sc51  1  0.99999997  0.75000005  0.52500001  1
  Sc  Sc52  1  0.25000010  0.00000009  0.52500002  1
  Sc  Sc53  1  0.25000010  0.50000009  0.52500002  1
  Sc  Sc54  1  0.75000010  0.00000009  0.52500002  1
  Sc  Sc55  1  0.75000010  0.50000009  0.52500002  1
  Sc  Sc56  1  0.24998970  0.00000078  0.62656453  1
  Sc  Sc57  1  0.25000612  0.49999855  0.62656395  1
  Sc  Sc58  1  0.75000479  0.99999629  0.62656485  1
  Sc  Sc59  1  0.74999737  0.50000211  0.62656445  1
  Sc  Sc60  1  0.49999957  0.25000224  0.62656415  1
  Sc  Sc61  1  0.50000133  0.75000196  0.62656362  1
  Sc  Sc62  1  0.00000357  0.24998828  0.62656572  1
  Sc  Sc63  1  0.99999911  0.75000972  0.62656529  1
