# generated using pymatgen
data_Sc2ZnCu
_symmetry_space_group_name_H-M   'P 1'
_cell_length_a   9.46849852
_cell_length_b   9.46850376
_cell_length_c   33.47621364
_cell_angle_alpha   89.99992200
_cell_angle_beta   89.99999831
_cell_angle_gamma   90.00001942
_symmetry_Int_Tables_number   1
_chemical_formula_structural   Sc2ZnCu
_chemical_formula_sum   'Sc32 Zn16 Cu16'
_cell_volume   3001.22670661
_cell_formula_units_Z   16
loop_
 _symmetry_equiv_pos_site_id
 _symmetry_equiv_pos_as_xyz
  1  'x, y, z'
loop_
 _atom_site_type_symbol
 _atom_site_label
 _atom_site_symmetry_multiplicity
 _atom_site_fract_x
 _atom_site_fract_y
 _atom_site_fract_z
 _atom_site_occupancy
  Cu  Cu0  1  0.49999999  0.49999997  0.37054029  1
  Cu  Cu1  1  0.49999999  0.99999997  0.37054029  1
  Cu  Cu2  1  0.99999999  0.49999997  0.37054029  1
  Cu  Cu3  1  0.99999999  0.99999997  0.37054029  1
  Cu  Cu4  1  0.24999980  0.25000001  0.47054032  1
  Cu  Cu5  1  0.24999980  0.75000001  0.47054032  1
  Cu  Cu6  1  0.74999980  0.25000001  0.47054032  1
  Cu  Cu7  1  0.74999980  0.75000001  0.47054032  1
  Cu  Cu8  1  0.49999999  0.49999997  0.57054029  1
  Cu  Cu9  1  0.49999999  0.99999997  0.57054029  1
  Cu  Cu10  1  0.99999999  0.49999997  0.57054029  1
  Cu  Cu11  1  0.99999999  0.99999997  0.57054029  1
  Cu  Cu12  1  0.24999975  0.24999980  0.66565061  1
  Cu  Cu13  1  0.24999989  0.74999985  0.66565070  1
  Cu  Cu14  1  0.74999992  0.24999985  0.66565057  1
  Cu  Cu15  1  0.74999979  0.74999985  0.66565061  1
  Sc  Sc16  1  0.24999974  0.00000000  0.32054045  1
  Sc  Sc17  1  0.24999974  0.50000000  0.32054045  1
  Sc  Sc18  1  0.74999974  0.00000000  0.32054045  1
  Sc  Sc19  1  0.74999974  0.50000000  0.32054045  1
  Sc  Sc20  1  0.49999976  0.25000000  0.32054044  1
  Sc  Sc21  1  0.49999976  0.75000000  0.32054044  1
  Sc  Sc22  1  0.99999976  0.25000000  0.32054044  1
  Sc  Sc23  1  0.99999976  0.75000000  0.32054044  1
  Sc  Sc24  1  0.49999981  0.25000002  0.42054014  1
  Sc  Sc25  1  0.49999981  0.75000002  0.42054014  1
  Sc  Sc26  1  0.99999981  0.25000002  0.42054014  1
  Sc  Sc27  1  0.99999981  0.75000002  0.42054014  1
  Sc  Sc28  1  0.24999974  0.00000001  0.42054017  1
  Sc  Sc29  1  0.24999974  0.50000001  0.42054017  1
  Sc  Sc30  1  0.74999974  0.00000001  0.42054017  1
  Sc  Sc31  1  0.74999974  0.50000001  0.42054017  1
  Sc  Sc32  1  0.24999974  0.00000000  0.52054045  1
  Sc  Sc33  1  0.24999974  0.50000000  0.52054045  1
  Sc  Sc34  1  0.74999974  0.00000000  0.52054045  1
  Sc  Sc35  1  0.74999974  0.50000000  0.52054045  1
  Sc  Sc36  1  0.49999976  0.25000000  0.52054044  1
  Sc  Sc37  1  0.49999976  0.75000000  0.52054044  1
  Sc  Sc38  1  0.99999976  0.25000000  0.52054044  1
  Sc  Sc39  1  0.99999976  0.75000000  0.52054044  1
  Sc  Sc40  1  0.49999977  0.24999999  0.62191074  1
  Sc  Sc41  1  0.50000040  0.74999994  0.62191074  1
  Sc  Sc42  1  0.99999981  0.24999987  0.62191072  1
  Sc  Sc43  1  0.99999924  0.74999998  0.62191073  1
  Sc  Sc44  1  0.24999995  0.00000045  0.62191070  1
  Sc  Sc45  1  0.24999985  0.49999965  0.62191071  1
  Sc  Sc46  1  0.74999995  0.99999994  0.62191074  1
  Sc  Sc47  1  0.74999999  0.50000017  0.62191077  1
  Zn  Zn48  1  0.49999999  0.49999997  0.47054031  1
  Zn  Zn49  1  0.49999999  0.99999997  0.47054031  1
  Zn  Zn50  1  0.99999999  0.49999997  0.47054031  1
  Zn  Zn51  1  0.99999999  0.99999997  0.47054031  1
  Zn  Zn52  1  0.24999981  0.25000001  0.37054031  1
  Zn  Zn53  1  0.24999981  0.75000001  0.37054031  1
  Zn  Zn54  1  0.74999981  0.25000001  0.37054031  1
  Zn  Zn55  1  0.74999981  0.75000001  0.37054031  1
  Zn  Zn56  1  0.49999977  0.49999996  0.67420770  1
  Zn  Zn57  1  0.49999981  0.99999965  0.67420762  1
  Zn  Zn58  1  1.00000000  0.49999973  0.67420763  1
  Zn  Zn59  1  0.00000003  0.99999983  0.67420757  1
  Zn  Zn60  1  0.24999981  0.25000001  0.57054031  1
  Zn  Zn61  1  0.24999981  0.75000001  0.57054031  1
  Zn  Zn62  1  0.74999981  0.25000001  0.57054031  1
  Zn  Zn63  1  0.74999981  0.75000001  0.57054031  1
