# generated using pymatgen
data_ScCuPd2
_symmetry_space_group_name_H-M   'P 1'
_cell_length_a   9.01838893
_cell_length_b   12.75392795
_cell_length_c   36.07355430
_cell_angle_alpha   89.99999748
_cell_angle_beta   90.00001703
_cell_angle_gamma   89.99998176
_symmetry_Int_Tables_number   1
_chemical_formula_structural   ScCuPd2
_chemical_formula_sum   'Sc24 Cu24 Pd48'
_cell_volume   4149.17598193
_cell_formula_units_Z   24
loop_
 _symmetry_equiv_pos_site_id
 _symmetry_equiv_pos_as_xyz
  1  'x, y, z'
loop_
 _atom_site_type_symbol
 _atom_site_label
 _atom_site_symmetry_multiplicity
 _atom_site_fract_x
 _atom_site_fract_y
 _atom_site_fract_z
 _atom_site_occupancy
  Cu  Cu0  1  0.37499999  0.49999998  0.59375000  1
  Cu  Cu1  1  0.37499999  0.99999998  0.59375000  1
  Cu  Cu2  1  0.87499999  0.49999998  0.59375000  1
  Cu  Cu3  1  0.87499999  0.99999998  0.59375000  1
  Cu  Cu4  1  0.12500001  0.25000000  0.65561809  1
  Cu  Cu5  1  0.12500000  0.74999999  0.65561809  1
  Cu  Cu6  1  0.62499997  0.25000002  0.65561809  1
  Cu  Cu7  1  0.62500000  0.75000002  0.65561809  1
  Cu  Cu8  1  0.37499999  0.49999998  0.46875000  1
  Cu  Cu9  1  0.37499999  0.99999998  0.46875000  1
  Cu  Cu10  1  0.87499999  0.49999998  0.46875000  1
  Cu  Cu11  1  0.87499999  0.99999998  0.46875000  1
  Cu  Cu12  1  0.12500000  0.25000000  0.53125000  1
  Cu  Cu13  1  0.12500000  0.75000000  0.53125000  1
  Cu  Cu14  1  0.62500000  0.25000000  0.53125000  1
  Cu  Cu15  1  0.62500000  0.75000000  0.53125000  1
  Cu  Cu16  1  0.37499999  0.49999998  0.34375000  1
  Cu  Cu17  1  0.37499999  0.99999998  0.34375000  1
  Cu  Cu18  1  0.87499999  0.49999998  0.34375000  1
  Cu  Cu19  1  0.87499999  0.99999998  0.34375000  1
  Cu  Cu20  1  0.12500000  0.25000000  0.40625000  1
  Cu  Cu21  1  0.12500000  0.75000000  0.40625000  1
  Cu  Cu22  1  0.62500000  0.25000000  0.40625000  1
  Cu  Cu23  1  0.62500000  0.75000000  0.40625000  1
  Pd  Pd24  1  0.37499999  0.13001045  0.65440132  1
  Pd  Pd25  1  0.37500000  0.63001058  0.65440133  1
  Pd  Pd26  1  0.87500001  0.13001051  0.65440133  1
  Pd  Pd27  1  0.87499996  0.63001056  0.65440134  1
  Pd  Pd28  1  0.12500001  0.12500006  0.59375000  1
  Pd  Pd29  1  0.12500001  0.62500006  0.59375000  1
  Pd  Pd30  1  0.62500001  0.12500006  0.59375000  1
  Pd  Pd31  1  0.62500001  0.62500006  0.59375000  1
  Pd  Pd32  1  0.12500003  0.37499995  0.59375000  1
  Pd  Pd33  1  0.12500003  0.87499995  0.59375000  1
  Pd  Pd34  1  0.62500003  0.37499995  0.59375000  1
  Pd  Pd35  1  0.62500003  0.87499995  0.59375000  1
  Pd  Pd36  1  0.37499998  0.36998951  0.65440130  1
  Pd  Pd37  1  0.37500000  0.86998947  0.65440131  1
  Pd  Pd38  1  0.87499998  0.36998951  0.65440131  1
  Pd  Pd39  1  0.87499999  0.86998944  0.65440131  1
  Pd  Pd40  1  0.37500002  0.12500006  0.53125000  1
  Pd  Pd41  1  0.37500002  0.62500006  0.53125000  1
  Pd  Pd42  1  0.87500002  0.12500006  0.53125000  1
  Pd  Pd43  1  0.87500002  0.62500006  0.53125000  1
  Pd  Pd44  1  0.12500001  0.12500006  0.46875000  1
  Pd  Pd45  1  0.12500001  0.62500006  0.46875000  1
  Pd  Pd46  1  0.62500001  0.12500006  0.46875000  1
  Pd  Pd47  1  0.62500001  0.62500006  0.46875000  1
  Pd  Pd48  1  0.12500003  0.37499995  0.46875000  1
  Pd  Pd49  1  0.12500003  0.87499995  0.46875000  1
  Pd  Pd50  1  0.62500003  0.37499995  0.46875000  1
  Pd  Pd51  1  0.62500003  0.87499995  0.46875000  1
  Pd  Pd52  1  0.37499999  0.37499997  0.53124999  1
  Pd  Pd53  1  0.37499999  0.87499997  0.53124999  1
  Pd  Pd54  1  0.87499999  0.37499997  0.53124999  1
  Pd  Pd55  1  0.87499999  0.87499997  0.53124999  1
  Pd  Pd56  1  0.37500002  0.12500006  0.40625000  1
  Pd  Pd57  1  0.37500002  0.62500006  0.40625000  1
  Pd  Pd58  1  0.87500002  0.12500006  0.40625000  1
  Pd  Pd59  1  0.87500002  0.62500006  0.40625000  1
  Pd  Pd60  1  0.12500001  0.12500006  0.34375000  1
  Pd  Pd61  1  0.12500001  0.62500006  0.34375000  1
  Pd  Pd62  1  0.62500001  0.12500006  0.34375000  1
  Pd  Pd63  1  0.62500001  0.62500006  0.34375000  1
  Pd  Pd64  1  0.12500003  0.37499995  0.34375000  1
  Pd  Pd65  1  0.12500003  0.87499995  0.34375000  1
  Pd  Pd66  1  0.62500003  0.37499995  0.34375000  1
  Pd  Pd67  1  0.62500003  0.87499995  0.34375000  1
  Pd  Pd68  1  0.37499999  0.37499997  0.40624999  1
  Pd  Pd69  1  0.37499999  0.87499997  0.40624999  1
  Pd  Pd70  1  0.87499999  0.37499997  0.40624999  1
  Pd  Pd71  1  0.87499999  0.87499997  0.40624999  1
  Sc  Sc72  1  0.12499995  0.99999996  0.65449073  1
  Sc  Sc73  1  0.12499995  0.50000004  0.65449071  1
  Sc  Sc74  1  0.62500004  0.99999997  0.65449073  1
  Sc  Sc75  1  0.62499999  0.50000001  0.65449072  1
  Sc  Sc76  1  0.37499998  0.24999994  0.59375000  1
  Sc  Sc77  1  0.37499998  0.74999994  0.59375000  1
  Sc  Sc78  1  0.87499998  0.24999994  0.59375000  1
  Sc  Sc79  1  0.87499998  0.74999994  0.59375000  1
  Sc  Sc80  1  0.12499998  0.00000003  0.53125000  1
  Sc  Sc81  1  0.12499998  0.50000003  0.53125000  1
  Sc  Sc82  1  0.62499998  0.00000003  0.53125000  1
  Sc  Sc83  1  0.62499998  0.50000003  0.53125000  1
  Sc  Sc84  1  0.37499998  0.24999994  0.46875000  1
  Sc  Sc85  1  0.37499998  0.74999994  0.46875000  1
  Sc  Sc86  1  0.87499998  0.24999994  0.46875000  1
  Sc  Sc87  1  0.87499998  0.74999994  0.46875000  1
  Sc  Sc88  1  0.12499998  0.00000003  0.40625000  1
  Sc  Sc89  1  0.12499998  0.50000003  0.40625000  1
  Sc  Sc90  1  0.62499998  0.00000003  0.40625000  1
  Sc  Sc91  1  0.62499998  0.50000003  0.40625000  1
  Sc  Sc92  1  0.37499998  0.24999994  0.34375000  1
  Sc  Sc93  1  0.37499998  0.74999994  0.34375000  1
  Sc  Sc94  1  0.87499998  0.24999994  0.34375000  1
  Sc  Sc95  1  0.87499998  0.74999994  0.34375000  1
