# generated using pymatgen
data_Zn3Cu
_symmetry_space_group_name_H-M   'P 1'
_cell_length_a   8.70682257
_cell_length_b   9.54862414
_cell_length_c   66.15478229
_cell_angle_alpha   150.00002203
_cell_angle_beta   90.00000145
_cell_angle_gamma   90.00000019
_symmetry_Int_Tables_number   1
_chemical_formula_structural   Zn3Cu
_chemical_formula_sum   'Zn48 Cu16'
_cell_volume   2749.99214074
_cell_formula_units_Z   16
loop_
 _symmetry_equiv_pos_site_id
 _symmetry_equiv_pos_as_xyz
  1  'x, y, z'
loop_
 _atom_site_type_symbol
 _atom_site_label
 _atom_site_symmetry_multiplicity
 _atom_site_fract_x
 _atom_site_fract_y
 _atom_site_fract_z
 _atom_site_occupancy
  Zn  Zn0  1  0.12499985  0.83073000  0.35351573  1
  Zn  Zn1  1  0.62499985  0.83073000  0.35351573  1
  Zn  Zn2  1  0.12500001  0.83072914  0.39583333  1
  Zn  Zn3  1  0.62500001  0.83072914  0.39583333  1
  Zn  Zn4  1  0.12500016  0.33854120  0.35481760  1
  Zn  Zn5  1  0.62500016  0.33854120  0.35481760  1
  Zn  Zn6  1  0.37500015  0.16927005  0.35481761  1
  Zn  Zn7  1  0.87500015  0.16927005  0.35481761  1
  Zn  Zn8  1  0.37500000  0.16927089  0.39583333  1
  Zn  Zn9  1  0.87500000  0.16927089  0.39583333  1
  Zn  Zn10  1  0.37499985  0.66145869  0.35351572  1
  Zn  Zn11  1  0.87499985  0.66145869  0.35351572  1
  Zn  Zn12  1  0.12499985  0.83073000  0.43684907  1
  Zn  Zn13  1  0.62499985  0.83073000  0.43684907  1
  Zn  Zn14  1  0.12500001  0.83072914  0.47916667  1
  Zn  Zn15  1  0.62500001  0.83072914  0.47916667  1
  Zn  Zn16  1  0.12500016  0.33854120  0.43815093  1
  Zn  Zn17  1  0.62500016  0.33854120  0.43815093  1
  Zn  Zn18  1  0.37500015  0.16927005  0.43815095  1
  Zn  Zn19  1  0.87500015  0.16927005  0.43815095  1
  Zn  Zn20  1  0.37500000  0.16927089  0.47916666  1
  Zn  Zn21  1  0.87500000  0.16927089  0.47916666  1
  Zn  Zn22  1  0.37499985  0.66145869  0.43684905  1
  Zn  Zn23  1  0.87499985  0.66145869  0.43684905  1
  Zn  Zn24  1  0.12499985  0.83073000  0.52018240  1
  Zn  Zn25  1  0.62499985  0.83073000  0.52018240  1
  Zn  Zn26  1  0.12500001  0.83072914  0.56250000  1
  Zn  Zn27  1  0.62500001  0.83072914  0.56250000  1
  Zn  Zn28  1  0.12500016  0.33854120  0.52148427  1
  Zn  Zn29  1  0.62500016  0.33854120  0.52148427  1
  Zn  Zn30  1  0.37500015  0.16927005  0.52148428  1
  Zn  Zn31  1  0.87500015  0.16927005  0.52148428  1
  Zn  Zn32  1  0.37500000  0.16927089  0.56250000  1
  Zn  Zn33  1  0.87500000  0.16927089  0.56250000  1
  Zn  Zn34  1  0.37499985  0.66145869  0.52018239  1
  Zn  Zn35  1  0.87499985  0.66145869  0.52018239  1
  Zn  Zn36  1  0.12499999  0.84971974  0.60782447  1
  Zn  Zn37  1  0.62500002  0.84971969  0.60782447  1
  Zn  Zn38  1  0.12500001  0.81755281  0.64553730  1
  Zn  Zn39  1  0.62500001  0.81755286  0.64553731  1
  Zn  Zn40  1  0.12499999  0.36717264  0.61076672  1
  Zn  Zn41  1  0.62500001  0.36717269  0.61076673  1
  Zn  Zn42  1  0.37500001  0.21194770  0.61076818  1
  Zn  Zn43  1  0.87500000  0.21194768  0.61076818  1
  Zn  Zn44  1  0.37499998  0.17909884  0.64557898  1
  Zn  Zn45  1  0.87500003  0.17909893  0.64557899  1
  Zn  Zn46  1  0.37500000  0.69407438  0.60780402  1
  Zn  Zn47  1  0.87499998  0.69407434  0.60780402  1
  Cu  Cu48  1  0.37499997  0.66666683  0.39583333  1
  Cu  Cu49  1  0.87499997  0.66666683  0.39583333  1
  Cu  Cu50  1  0.12500000  0.33333320  0.39583333  1
  Cu  Cu51  1  0.62500000  0.33333320  0.39583333  1
  Cu  Cu52  1  0.37499997  0.66666683  0.47916667  1
  Cu  Cu53  1  0.87499997  0.66666683  0.47916667  1
  Cu  Cu54  1  0.12500000  0.33333320  0.47916667  1
  Cu  Cu55  1  0.62500000  0.33333320  0.47916667  1
  Cu  Cu56  1  0.37499997  0.66666683  0.56250000  1
  Cu  Cu57  1  0.87499997  0.66666683  0.56250000  1
  Cu  Cu58  1  0.12500000  0.33333320  0.56250000  1
  Cu  Cu59  1  0.62500000  0.33333320  0.56250000  1
  Cu  Cu60  1  0.37500001  0.64747289  0.64019002  1
  Cu  Cu61  1  0.87500000  0.64747290  0.64019005  1
  Cu  Cu62  1  0.12499999  0.28508076  0.64019488  1
  Cu  Cu63  1  0.62500002  0.28508043  0.64019486  1
