# generated using pymatgen
data_Zr2TcPd
_symmetry_space_group_name_H-M   'P 1'
_cell_length_a   9.43437921
_cell_length_b   9.43437999
_cell_length_c   34.66411650
_cell_angle_alpha   90.00001798
_cell_angle_beta   90.00002047
_cell_angle_gamma   59.99998291
_symmetry_Int_Tables_number   1
_chemical_formula_structural   Zr2TcPd
_chemical_formula_sum   'Zr24 Tc12 Pd12'
_cell_volume   2672.00573080
_cell_formula_units_Z   12
loop_
 _symmetry_equiv_pos_site_id
 _symmetry_equiv_pos_as_xyz
  1  'x, y, z'
loop_
 _atom_site_type_symbol
 _atom_site_label
 _atom_site_symmetry_multiplicity
 _atom_site_fract_x
 _atom_site_fract_y
 _atom_site_fract_z
 _atom_site_occupancy
  Pd  Pd0  1  0.41665271  0.04167340  0.64562905  1
  Pd  Pd1  1  0.41665285  0.54167376  0.64562906  1
  Pd  Pd2  1  0.91665308  0.04167355  0.64562905  1
  Pd  Pd3  1  0.91665283  0.54167341  0.64562900  1
  Pd  Pd4  1  0.25000000  0.37499998  0.54166667  1
  Pd  Pd5  1  0.25000000  0.87499998  0.54166667  1
  Pd  Pd6  1  0.75000000  0.37499998  0.54166667  1
  Pd  Pd7  1  0.75000000  0.87499998  0.54166667  1
  Pd  Pd8  1  0.08333333  0.20833332  0.43055556  1
  Pd  Pd9  1  0.08333333  0.70833332  0.43055556  1
  Pd  Pd10  1  0.58333333  0.20833332  0.43055556  1
  Pd  Pd11  1  0.58333333  0.70833332  0.43055556  1
  Tc  Tc12  1  0.08332301  0.20833885  0.59640092  1
  Tc  Tc13  1  0.08332268  0.70833829  0.59640251  1
  Tc  Tc14  1  0.58332277  0.20833844  0.59640195  1
  Tc  Tc15  1  0.58332318  0.70833859  0.59640225  1
  Tc  Tc16  1  0.41666668  0.04166668  0.48611111  1
  Tc  Tc17  1  0.41666668  0.54166668  0.48611111  1
  Tc  Tc18  1  0.91666668  0.04166668  0.48611111  1
  Tc  Tc19  1  0.91666668  0.54166668  0.48611111  1
  Tc  Tc20  1  0.25000001  0.37500001  0.37500000  1
  Tc  Tc21  1  0.25000001  0.87500001  0.37500000  1
  Tc  Tc22  1  0.75000001  0.37500001  0.37500000  1
  Tc  Tc23  1  0.75000001  0.87500001  0.37500000  1
  Zr  Zr24  1  0.24998832  0.37500516  0.62527910  1
  Zr  Zr25  1  0.24998980  0.87500582  0.62527881  1
  Zr  Zr26  1  0.74999049  0.37500588  0.62527896  1
  Zr  Zr27  1  0.74998958  0.87500411  0.62527918  1
  Zr  Zr28  1  0.41666665  0.04166668  0.56944444  1
  Zr  Zr29  1  0.41666665  0.54166668  0.56944444  1
  Zr  Zr30  1  0.91666665  0.04166668  0.56944444  1
  Zr  Zr31  1  0.91666665  0.54166668  0.56944444  1
  Zr  Zr32  1  0.08333334  0.20833333  0.51388889  1
  Zr  Zr33  1  0.08333334  0.70833333  0.51388889  1
  Zr  Zr34  1  0.58333334  0.20833333  0.51388889  1
  Zr  Zr35  1  0.58333334  0.70833333  0.51388889  1
  Zr  Zr36  1  0.24999999  0.37500001  0.45833333  1
  Zr  Zr37  1  0.24999999  0.87500001  0.45833333  1
  Zr  Zr38  1  0.74999999  0.37500001  0.45833333  1
  Zr  Zr39  1  0.74999999  0.87500001  0.45833333  1
  Zr  Zr40  1  0.41666668  0.04166666  0.40277778  1
  Zr  Zr41  1  0.41666668  0.54166666  0.40277778  1
  Zr  Zr42  1  0.91666668  0.04166666  0.40277778  1
  Zr  Zr43  1  0.91666668  0.54166666  0.40277778  1
  Zr  Zr44  1  0.08333332  0.20833334  0.34722222  1
  Zr  Zr45  1  0.08333332  0.70833334  0.34722222  1
  Zr  Zr46  1  0.58333332  0.20833334  0.34722222  1
  Zr  Zr47  1  0.58333332  0.70833334  0.34722222  1
