# generated using pymatgen
data_Sc2GaPt
_symmetry_space_group_name_H-M   'P 1'
_cell_length_a   9.52239811
_cell_length_b   9.52239408
_cell_length_c   34.98748998
_cell_angle_alpha   89.99998845
_cell_angle_beta   89.99995361
_cell_angle_gamma   59.99999146
_symmetry_Int_Tables_number   1
_chemical_formula_structural   Sc2GaPt
_chemical_formula_sum   'Sc24 Ga12 Pt12'
_cell_volume   2747.48839363
_cell_formula_units_Z   12
loop_
 _symmetry_equiv_pos_site_id
 _symmetry_equiv_pos_as_xyz
  1  'x, y, z'
loop_
 _atom_site_type_symbol
 _atom_site_label
 _atom_site_symmetry_multiplicity
 _atom_site_fract_x
 _atom_site_fract_y
 _atom_site_fract_z
 _atom_site_occupancy
  Ga  Ga0  1  0.37499996  0.24999998  0.35833520  1
  Ga  Ga1  1  0.37499996  0.74999998  0.35833520  1
  Ga  Ga2  1  0.87499996  0.24999998  0.35833520  1
  Ga  Ga3  1  0.87499996  0.74999998  0.35833520  1
  Ga  Ga4  1  0.04166665  0.41666665  0.46944620  1
  Ga  Ga5  1  0.04166665  0.91666665  0.46944620  1
  Ga  Ga6  1  0.54166665  0.41666665  0.46944620  1
  Ga  Ga7  1  0.54166665  0.91666665  0.46944620  1
  Ga  Ga8  1  0.20831537  0.08336444  0.59242879  1
  Ga  Ga9  1  0.20831762  0.58336292  0.59242893  1
  Ga  Ga10  1  0.70831598  0.08336530  0.59242896  1
  Ga  Ga11  1  0.70831780  0.58336401  0.59242896  1
  Pt  Pt12  1  0.20833335  0.08333344  0.41389062  1
  Pt  Pt13  1  0.20833335  0.58333344  0.41389062  1
  Pt  Pt14  1  0.70833335  0.08333344  0.41389062  1
  Pt  Pt15  1  0.70833335  0.58333344  0.41389062  1
  Pt  Pt16  1  0.37500005  0.25000010  0.52500184  1
  Pt  Pt17  1  0.37500005  0.75000010  0.52500184  1
  Pt  Pt18  1  0.87500005  0.25000010  0.52500184  1
  Pt  Pt19  1  0.87500005  0.75000010  0.52500184  1
  Pt  Pt20  1  0.04166698  0.41666705  0.62342728  1
  Pt  Pt21  1  0.04166600  0.91666631  0.62342671  1
  Pt  Pt22  1  0.54166680  0.41666648  0.62342716  1
  Pt  Pt23  1  0.54166734  0.91666571  0.62342644  1
  Sc  Sc24  1  0.04166659  0.41666659  0.38611286  1
  Sc  Sc25  1  0.04166659  0.91666659  0.38611286  1
  Sc  Sc26  1  0.54166659  0.41666659  0.38611286  1
  Sc  Sc27  1  0.54166659  0.91666659  0.38611286  1
  Sc  Sc28  1  0.20833325  0.08333333  0.33055730  1
  Sc  Sc29  1  0.20833325  0.58333333  0.33055730  1
  Sc  Sc30  1  0.70833325  0.08333333  0.33055730  1
  Sc  Sc31  1  0.70833325  0.58333333  0.33055730  1
  Sc  Sc32  1  0.20833320  0.08333325  0.49722397  1
  Sc  Sc33  1  0.20833320  0.58333325  0.49722397  1
  Sc  Sc34  1  0.70833320  0.08333325  0.49722397  1
  Sc  Sc35  1  0.70833320  0.58333325  0.49722397  1
  Sc  Sc36  1  0.37499994  0.24999999  0.44166852  1
  Sc  Sc37  1  0.37499994  0.74999999  0.44166852  1
  Sc  Sc38  1  0.87499994  0.24999999  0.44166852  1
  Sc  Sc39  1  0.87499994  0.74999999  0.44166852  1
  Sc  Sc40  1  0.37500650  0.24998643  0.61317681  1
  Sc  Sc41  1  0.37500636  0.74998605  0.61317690  1
  Sc  Sc42  1  0.87500772  0.24998452  0.61317679  1
  Sc  Sc43  1  0.87500683  0.74998547  0.61317688  1
  Sc  Sc44  1  0.04166663  0.41666666  0.55277953  1
  Sc  Sc45  1  0.04166663  0.91666666  0.55277953  1
  Sc  Sc46  1  0.54166663  0.41666666  0.55277953  1
  Sc  Sc47  1  0.54166663  0.91666666  0.55277953  1
