# generated using pymatgen
data_Sc2PdAu
_symmetry_space_group_name_H-M   'P 1'
_cell_length_a   9.60403651
_cell_length_b   9.60403985
_cell_length_c   35.28749087
_cell_angle_alpha   90.00002148
_cell_angle_beta   90.00000704
_cell_angle_gamma   119.99996250
_symmetry_Int_Tables_number   1
_chemical_formula_structural   Sc2PdAu
_chemical_formula_sum   'Sc24 Pd12 Au12'
_cell_volume   2818.76798527
_cell_formula_units_Z   12
loop_
 _symmetry_equiv_pos_site_id
 _symmetry_equiv_pos_as_xyz
  1  'x, y, z'
loop_
 _atom_site_type_symbol
 _atom_site_label
 _atom_site_symmetry_multiplicity
 _atom_site_fract_x
 _atom_site_fract_y
 _atom_site_fract_z
 _atom_site_occupancy
  Au  Au0  1  0.25000011  0.37500004  0.37385649  1
  Au  Au1  1  0.25000011  0.87500004  0.37385649  1
  Au  Au2  1  0.75000011  0.37500004  0.37385649  1
  Au  Au3  1  0.75000011  0.87500004  0.37385649  1
  Au  Au4  1  0.08333370  0.04166670  0.48496757  1
  Au  Au5  1  0.08333370  0.54166670  0.48496757  1
  Au  Au6  1  0.58333370  0.04166670  0.48496757  1
  Au  Au7  1  0.58333370  0.54166670  0.48496757  1
  Au  Au8  1  0.41665607  0.20832790  0.59679677  1
  Au  Au9  1  0.41665602  0.70832788  0.59679676  1
  Au  Au10  1  0.91665637  0.20832795  0.59679653  1
  Au  Au11  1  0.91665605  0.70832841  0.59679661  1
  Pd  Pd12  1  0.41666689  0.20833329  0.42941204  1
  Pd  Pd13  1  0.41666689  0.70833329  0.42941204  1
  Pd  Pd14  1  0.91666689  0.20833329  0.42941204  1
  Pd  Pd15  1  0.91666689  0.70833329  0.42941204  1
  Pd  Pd16  1  0.25000009  0.37499996  0.54052317  1
  Pd  Pd17  1  0.25000009  0.87499996  0.54052317  1
  Pd  Pd18  1  0.75000009  0.37499996  0.54052317  1
  Pd  Pd19  1  0.75000009  0.87499996  0.54052317  1
  Pd  Pd20  1  0.08330928  0.04165473  0.64058832  1
  Pd  Pd21  1  0.08330983  0.54165486  0.64058837  1
  Pd  Pd22  1  0.58330983  0.04165544  0.64058825  1
  Pd  Pd23  1  0.58330966  0.54165475  0.64058835  1
  Sc  Sc24  1  0.08333363  0.04166655  0.40163425  1
  Sc  Sc25  1  0.08333363  0.54166655  0.40163425  1
  Sc  Sc26  1  0.58333363  0.04166655  0.40163425  1
  Sc  Sc27  1  0.58333363  0.54166655  0.40163425  1
  Sc  Sc28  1  0.41666695  0.20833345  0.34607870  1
  Sc  Sc29  1  0.41666695  0.70833345  0.34607870  1
  Sc  Sc30  1  0.91666695  0.20833345  0.34607870  1
  Sc  Sc31  1  0.91666695  0.70833345  0.34607870  1
  Sc  Sc32  1  0.41666684  0.20833322  0.51274538  1
  Sc  Sc33  1  0.41666684  0.70833322  0.51274538  1
  Sc  Sc34  1  0.91666684  0.20833322  0.51274538  1
  Sc  Sc35  1  0.91666684  0.70833322  0.51274538  1
  Sc  Sc36  1  0.25000016  0.37500012  0.45718982  1
  Sc  Sc37  1  0.25000016  0.87500012  0.45718982  1
  Sc  Sc38  1  0.75000016  0.37500012  0.45718982  1
  Sc  Sc39  1  0.75000016  0.87500012  0.45718982  1
  Sc  Sc40  1  0.24998970  0.37499460  0.62473687  1
  Sc  Sc41  1  0.24998872  0.87499359  0.62473678  1
  Sc  Sc42  1  0.74999081  0.37499459  0.62473660  1
  Sc  Sc43  1  0.74998716  0.87499401  0.62473666  1
  Sc  Sc44  1  0.08333375  0.04166679  0.56830090  1
  Sc  Sc45  1  0.08333375  0.54166679  0.56830090  1
  Sc  Sc46  1  0.58333375  0.04166679  0.56830090  1
  Sc  Sc47  1  0.58333375  0.54166679  0.56830090  1
