# generated using pymatgen
data_Sc2AlCu
_symmetry_space_group_name_H-M   'P 1'
_cell_length_a   9.56129117
_cell_length_b   9.56127827
_cell_length_c   35.13033456
_cell_angle_alpha   89.99994763
_cell_angle_beta   89.99999125
_cell_angle_gamma   120.00004772
_symmetry_Int_Tables_number   1
_chemical_formula_structural   Sc2AlCu
_chemical_formula_sum   'Sc24 Al12 Cu12'
_cell_volume   2781.28318696
_cell_formula_units_Z   12
loop_
 _symmetry_equiv_pos_site_id
 _symmetry_equiv_pos_as_xyz
  1  'x, y, z'
loop_
 _atom_site_type_symbol
 _atom_site_label
 _atom_site_symmetry_multiplicity
 _atom_site_fract_x
 _atom_site_fract_y
 _atom_site_fract_z
 _atom_site_occupancy
  Al  Al0  1  0.12499997  0.24999998  0.36932368  1
  Al  Al1  1  0.12499997  0.74999998  0.36932368  1
  Al  Al2  1  0.62499997  0.24999998  0.36932368  1
  Al  Al3  1  0.62499997  0.74999998  0.36932368  1
  Al  Al4  1  0.45833332  0.41666665  0.48043481  1
  Al  Al5  1  0.45833332  0.91666665  0.48043481  1
  Al  Al6  1  0.95833332  0.41666665  0.48043481  1
  Al  Al7  1  0.95833332  0.91666665  0.48043481  1
  Al  Al8  1  0.29166432  0.08332879  0.59958084  1
  Al  Al9  1  0.29166511  0.58332603  0.59958055  1
  Al  Al10  1  0.79166295  0.08332392  0.59958035  1
  Al  Al11  1  0.79165943  0.58332651  0.59957995  1
  Cu  Cu12  1  0.29166664  0.08333330  0.42487924  1
  Cu  Cu13  1  0.29166664  0.58333330  0.42487924  1
  Cu  Cu14  1  0.79166664  0.08333330  0.42487924  1
  Cu  Cu15  1  0.79166664  0.58333330  0.42487924  1
  Cu  Cu16  1  0.12499998  0.24999997  0.53599033  1
  Cu  Cu17  1  0.12499998  0.74999997  0.53599033  1
  Cu  Cu18  1  0.62499998  0.24999997  0.53599033  1
  Cu  Cu19  1  0.62499998  0.74999997  0.53599033  1
  Cu  Cu20  1  0.45835860  0.41671725  0.63425399  1
  Cu  Cu21  1  0.45835745  0.91671717  0.63425387  1
  Cu  Cu22  1  0.95835959  0.41671854  0.63425425  1
  Cu  Cu23  1  0.95835864  0.91671754  0.63425422  1
  Sc  Sc24  1  0.45833328  0.41666671  0.39710147  1
  Sc  Sc25  1  0.45833328  0.91666671  0.39710147  1
  Sc  Sc26  1  0.95833328  0.41666671  0.39710147  1
  Sc  Sc27  1  0.95833328  0.91666671  0.39710147  1
  Sc  Sc28  1  0.29166667  0.08333334  0.34154590  1
  Sc  Sc29  1  0.29166667  0.58333334  0.34154590  1
  Sc  Sc30  1  0.79166667  0.08333334  0.34154590  1
  Sc  Sc31  1  0.79166667  0.58333334  0.34154590  1
  Sc  Sc32  1  0.29166658  0.08333338  0.50821258  1
  Sc  Sc33  1  0.29166658  0.58333338  0.50821258  1
  Sc  Sc34  1  0.79166658  0.08333338  0.50821258  1
  Sc  Sc35  1  0.79166658  0.58333338  0.50821258  1
  Sc  Sc36  1  0.12500002  0.25000000  0.45265699  1
  Sc  Sc37  1  0.12500002  0.75000000  0.45265699  1
  Sc  Sc38  1  0.62500002  0.25000000  0.45265699  1
  Sc  Sc39  1  0.62500002  0.75000000  0.45265699  1
  Sc  Sc40  1  0.12499688  0.24998803  0.61995312  1
  Sc  Sc41  1  0.12499862  0.74999244  0.61995249  1
  Sc  Sc42  1  0.62498934  0.24998641  0.61995308  1
  Sc  Sc43  1  0.62499371  0.74998877  0.61995254  1
  Sc  Sc44  1  0.45833337  0.41666667  0.56376813  1
  Sc  Sc45  1  0.45833337  0.91666667  0.56376813  1
  Sc  Sc46  1  0.95833337  0.41666667  0.56376813  1
  Sc  Sc47  1  0.95833337  0.91666667  0.56376813  1
