# generated using pymatgen
data_CuAg3
_symmetry_space_group_name_H-M   'P 1'
_cell_length_a   11.61918528
_cell_length_b   9.41454375
_cell_length_c   34.85755675
_cell_angle_alpha   89.99999020
_cell_angle_beta   120.00003229
_cell_angle_gamma   90.00001133
_symmetry_Int_Tables_number   1
_chemical_formula_structural   CuAg3
_chemical_formula_sum   'Cu16 Ag48'
_cell_volume   3302.19251384
_cell_formula_units_Z   16
loop_
 _symmetry_equiv_pos_site_id
 _symmetry_equiv_pos_as_xyz
  1  'x, y, z'
loop_
 _atom_site_type_symbol
 _atom_site_label
 _atom_site_symmetry_multiplicity
 _atom_site_fract_x
 _atom_site_fract_y
 _atom_site_fract_z
 _atom_site_occupancy
  Cu  Cu0  1  0.16666666  0.12499999  0.44444445  1
  Cu  Cu1  1  0.16666666  0.62499999  0.44444445  1
  Cu  Cu2  1  0.66666666  0.12499999  0.44444445  1
  Cu  Cu3  1  0.66666666  0.62499999  0.44444445  1
  Cu  Cu4  1  0.33333336  0.37500001  0.38888888  1
  Cu  Cu5  1  0.33333336  0.87500001  0.38888888  1
  Cu  Cu6  1  0.83333336  0.37500001  0.38888888  1
  Cu  Cu7  1  0.83333336  0.87500001  0.38888888  1
  Cu  Cu8  1  0.16421235  0.12499998  0.60949666  1
  Cu  Cu9  1  0.16421237  0.62500000  0.60949667  1
  Cu  Cu10  1  0.66421231  0.12499998  0.60949664  1
  Cu  Cu11  1  0.66421233  0.62500001  0.60949665  1
  Cu  Cu12  1  0.33333336  0.37500001  0.55555555  1
  Cu  Cu13  1  0.33333336  0.87500001  0.55555555  1
  Cu  Cu14  1  0.83333336  0.37500001  0.55555555  1
  Cu  Cu15  1  0.83333336  0.87500001  0.55555555  1
  Ag  Ag16  1  0.08471133  0.37500000  0.38980756  1
  Ag  Ag17  1  0.08471133  0.87500000  0.38980756  1
  Ag  Ag18  1  0.58471133  0.37500000  0.38980756  1
  Ag  Ag19  1  0.58471133  0.87500000  0.38980756  1
  Ag  Ag20  1  0.08471134  0.37499998  0.47176288  1
  Ag  Ag21  1  0.08471134  0.87499998  0.47176288  1
  Ag  Ag22  1  0.58471134  0.37499998  0.47176288  1
  Ag  Ag23  1  0.58471134  0.87499998  0.47176288  1
  Ag  Ag24  1  0.33057731  0.37499998  0.47176288  1
  Ag  Ag25  1  0.33057731  0.87499998  0.47176288  1
  Ag  Ag26  1  0.83057731  0.37499998  0.47176288  1
  Ag  Ag27  1  0.83057731  0.87499998  0.47176288  1
  Ag  Ag28  1  0.41528872  0.12500004  0.44352580  1
  Ag  Ag29  1  0.41528872  0.62500004  0.44352580  1
  Ag  Ag30  1  0.91528872  0.12500004  0.44352580  1
  Ag  Ag31  1  0.91528872  0.62500004  0.44352580  1
  Ag  Ag32  1  0.41528868  0.12499999  0.36157044  1
  Ag  Ag33  1  0.41528868  0.62499999  0.36157044  1
  Ag  Ag34  1  0.91528868  0.12499999  0.36157044  1
  Ag  Ag35  1  0.91528868  0.62499999  0.36157044  1
  Ag  Ag36  1  0.16942262  0.12500001  0.36157044  1
  Ag  Ag37  1  0.16942262  0.62500001  0.36157044  1
  Ag  Ag38  1  0.66942262  0.12500001  0.36157044  1
  Ag  Ag39  1  0.66942262  0.62500001  0.36157044  1
  Ag  Ag40  1  0.08471133  0.37500000  0.55647423  1
  Ag  Ag41  1  0.08471133  0.87500000  0.55647423  1
  Ag  Ag42  1  0.58471133  0.37500000  0.55647423  1
  Ag  Ag43  1  0.58471133  0.87500000  0.55647423  1
  Ag  Ag44  1  0.08125740  0.37499997  0.63674906  1
  Ag  Ag45  1  0.08125741  0.87500002  0.63674907  1
  Ag  Ag46  1  0.58125740  0.37499997  0.63674905  1
  Ag  Ag47  1  0.58125741  0.87500002  0.63674906  1
  Ag  Ag48  1  0.32895617  0.37499996  0.63674654  1
  Ag  Ag49  1  0.32895618  0.87500002  0.63674655  1
  Ag  Ag50  1  0.82895616  0.37499996  0.63674654  1
  Ag  Ag51  1  0.82895618  0.87500002  0.63674655  1
  Ag  Ag52  1  0.41812182  0.12500000  0.61208798  1
  Ag  Ag53  1  0.41812183  0.62500000  0.61208798  1
  Ag  Ag54  1  0.91812181  0.12499999  0.61208798  1
  Ag  Ag55  1  0.91812182  0.62500001  0.61208799  1
  Ag  Ag56  1  0.41528868  0.12499999  0.52823710  1
  Ag  Ag57  1  0.41528868  0.62499999  0.52823710  1
  Ag  Ag58  1  0.91528868  0.12499999  0.52823710  1
  Ag  Ag59  1  0.91528868  0.62499999  0.52823710  1
  Ag  Ag60  1  0.16942262  0.12500001  0.52823711  1
  Ag  Ag61  1  0.16942262  0.62500001  0.52823711  1
  Ag  Ag62  1  0.66942262  0.12500001  0.52823711  1
  Ag  Ag63  1  0.66942262  0.62500001  0.52823711  1
