# generated using pymatgen
data_Sc2PdAu
_symmetry_space_group_name_H-M   'P 1'
_cell_length_a   9.60403651
_cell_length_b   9.60404247
_cell_length_c   33.95540747
_cell_angle_alpha   89.99996271
_cell_angle_beta   89.99998282
_cell_angle_gamma   89.99997918
_symmetry_Int_Tables_number   1
_chemical_formula_structural   Sc2PdAu
_chemical_formula_sum   'Sc32 Pd16 Au16'
_cell_volume   3131.96442706
_cell_formula_units_Z   16
loop_
 _symmetry_equiv_pos_site_id
 _symmetry_equiv_pos_as_xyz
  1  'x, y, z'
loop_
 _atom_site_type_symbol
 _atom_site_label
 _atom_site_symmetry_multiplicity
 _atom_site_fract_x
 _atom_site_fract_y
 _atom_site_fract_z
 _atom_site_occupancy
  Au  Au0  1  0.00000033  0.00000006  0.36143046  1
  Au  Au1  1  0.00000033  0.50000006  0.36143046  1
  Au  Au2  1  0.50000033  0.00000006  0.36143046  1
  Au  Au3  1  0.50000033  0.50000006  0.36143046  1
  Au  Au4  1  0.25000019  0.25000002  0.46143049  1
  Au  Au5  1  0.25000019  0.75000002  0.46143049  1
  Au  Au6  1  0.75000019  0.25000002  0.46143049  1
  Au  Au7  1  0.75000019  0.75000002  0.46143049  1
  Au  Au8  1  0.00000033  0.00000006  0.56143046  1
  Au  Au9  1  0.00000033  0.50000006  0.56143046  1
  Au  Au10  1  0.50000033  0.00000006  0.56143046  1
  Au  Au11  1  0.50000033  0.50000006  0.56143046  1
  Au  Au12  1  0.24999993  0.24999948  0.66040818  1
  Au  Au13  1  0.25000004  0.75000002  0.66040814  1
  Au  Au14  1  0.74999994  0.25000012  0.66040815  1
  Au  Au15  1  0.75000019  0.75000036  0.66040812  1
  Pd  Pd16  1  0.00000007  0.49999992  0.46143050  1
  Pd  Pd17  1  0.00000007  0.99999992  0.46143050  1
  Pd  Pd18  1  0.50000007  0.49999992  0.46143050  1
  Pd  Pd19  1  0.50000007  0.99999992  0.46143050  1
  Pd  Pd20  1  0.25000014  0.25000002  0.36143051  1
  Pd  Pd21  1  0.25000014  0.75000002  0.36143051  1
  Pd  Pd22  1  0.75000014  0.25000002  0.36143051  1
  Pd  Pd23  1  0.75000014  0.75000002  0.36143051  1
  Pd  Pd24  1  0.00000004  0.49999990  0.65476785  1
  Pd  Pd25  1  0.00000022  0.99999974  0.65476789  1
  Pd  Pd26  1  0.50000020  0.49999977  0.65476785  1
  Pd  Pd27  1  0.50000000  0.99999986  0.65476786  1
  Pd  Pd28  1  0.25000014  0.25000002  0.56143051  1
  Pd  Pd29  1  0.25000014  0.75000002  0.56143051  1
  Pd  Pd30  1  0.75000014  0.25000002  0.56143051  1
  Pd  Pd31  1  0.75000014  0.75000002  0.56143051  1
  Sc  Sc32  1  0.00000017  0.24999991  0.31143059  1
  Sc  Sc33  1  0.00000017  0.74999991  0.31143059  1
  Sc  Sc34  1  0.50000017  0.24999991  0.31143059  1
  Sc  Sc35  1  0.50000017  0.74999991  0.31143059  1
  Sc  Sc36  1  0.25000027  0.00000011  0.31143067  1
  Sc  Sc37  1  0.25000027  0.50000011  0.31143067  1
  Sc  Sc38  1  0.75000027  0.00000011  0.31143067  1
  Sc  Sc39  1  0.75000027  0.50000011  0.31143067  1
  Sc  Sc40  1  0.25000001  0.49999991  0.41143031  1
  Sc  Sc41  1  0.25000001  0.99999991  0.41143031  1
  Sc  Sc42  1  0.75000001  0.49999991  0.41143031  1
  Sc  Sc43  1  0.75000001  0.99999991  0.41143031  1
  Sc  Sc44  1  0.00000027  0.25000006  0.41143039  1
  Sc  Sc45  1  0.00000027  0.75000006  0.41143039  1
  Sc  Sc46  1  0.50000027  0.25000006  0.41143039  1
  Sc  Sc47  1  0.50000027  0.75000006  0.41143039  1
  Sc  Sc48  1  0.00000017  0.24999991  0.51143059  1
  Sc  Sc49  1  0.00000017  0.74999991  0.51143059  1
  Sc  Sc50  1  0.50000017  0.24999991  0.51143059  1
  Sc  Sc51  1  0.50000017  0.74999991  0.51143059  1
  Sc  Sc52  1  0.25000027  0.00000011  0.51143067  1
  Sc  Sc53  1  0.25000027  0.50000011  0.51143067  1
  Sc  Sc54  1  0.75000027  0.00000011  0.51143067  1
  Sc  Sc55  1  0.75000027  0.50000011  0.51143067  1
  Sc  Sc56  1  0.25000032  0.50000032  0.61273880  1
  Sc  Sc57  1  0.25000000  0.99999977  0.61273904  1
  Sc  Sc58  1  0.74999973  0.49999986  0.61273884  1
  Sc  Sc59  1  0.74999995  0.99999933  0.61273890  1
  Sc  Sc60  1  0.00000067  0.25000048  0.61273902  1
  Sc  Sc61  1  0.00000034  0.74999972  0.61273902  1
  Sc  Sc62  1  0.50000016  0.25000007  0.61273894  1
  Sc  Sc63  1  0.49999999  0.75000007  0.61273898  1
