# generated using pymatgen
data_Ir
_symmetry_space_group_name_H-M   'P 1'
_cell_length_a   8.24647645
_cell_length_b   11.66227959
_cell_length_c   32.98590635
_cell_angle_alpha   89.99999774
_cell_angle_beta   89.99999416
_cell_angle_gamma   90.00000034
_symmetry_Int_Tables_number   1
_chemical_formula_structural   Ir
_chemical_formula_sum   Ir72
_cell_volume   3172.34413717
_cell_formula_units_Z   72
loop_
 _symmetry_equiv_pos_site_id
 _symmetry_equiv_pos_as_xyz
  1  'x, y, z'
loop_
 _atom_site_type_symbol
 _atom_site_label
 _atom_site_symmetry_multiplicity
 _atom_site_fract_x
 _atom_site_fract_y
 _atom_site_fract_z
 _atom_site_occupancy
  Ir  Ir0  1  0.08333333  0.33333333  0.39583333  1
  Ir  Ir1  1  0.08333333  0.66666666  0.39583333  1
  Ir  Ir2  1  0.08333333  1.00000000  0.39583333  1
  Ir  Ir3  1  0.41666667  0.33333333  0.39583333  1
  Ir  Ir4  1  0.41666667  0.66666666  0.39583333  1
  Ir  Ir5  1  0.41666667  1.00000000  0.39583333  1
  Ir  Ir6  1  0.75000000  0.33333333  0.39583333  1
  Ir  Ir7  1  0.75000000  0.66666666  0.39583333  1
  Ir  Ir8  1  0.75000000  1.00000000  0.39583333  1
  Ir  Ir9  1  0.25000000  0.16666667  0.35416667  1
  Ir  Ir10  1  0.25000000  0.50000000  0.35416667  1
  Ir  Ir11  1  0.25000000  0.83333334  0.35416667  1
  Ir  Ir12  1  0.58333333  0.16666667  0.35416667  1
  Ir  Ir13  1  0.58333333  0.50000000  0.35416667  1
  Ir  Ir14  1  0.58333333  0.83333334  0.35416667  1
  Ir  Ir15  1  0.91666667  0.16666667  0.35416667  1
  Ir  Ir16  1  0.91666667  0.50000000  0.35416667  1
  Ir  Ir17  1  0.91666667  0.83333334  0.35416667  1
  Ir  Ir18  1  0.08333333  0.33333333  0.47916667  1
  Ir  Ir19  1  0.08333333  0.66666666  0.47916667  1
  Ir  Ir20  1  0.08333333  1.00000000  0.47916667  1
  Ir  Ir21  1  0.41666667  0.33333333  0.47916667  1
  Ir  Ir22  1  0.41666667  0.66666666  0.47916667  1
  Ir  Ir23  1  0.41666667  1.00000000  0.47916667  1
  Ir  Ir24  1  0.75000000  0.33333333  0.47916667  1
  Ir  Ir25  1  0.75000000  0.66666666  0.47916667  1
  Ir  Ir26  1  0.75000000  1.00000000  0.47916667  1
  Ir  Ir27  1  0.25000000  0.16666667  0.43750000  1
  Ir  Ir28  1  0.25000000  0.50000000  0.43750000  1
  Ir  Ir29  1  0.25000000  0.83333334  0.43750000  1
  Ir  Ir30  1  0.58333333  0.16666667  0.43750000  1
  Ir  Ir31  1  0.58333333  0.50000000  0.43750000  1
  Ir  Ir32  1  0.58333333  0.83333334  0.43750000  1
  Ir  Ir33  1  0.91666667  0.16666667  0.43750000  1
  Ir  Ir34  1  0.91666667  0.50000000  0.43750000  1
  Ir  Ir35  1  0.91666667  0.83333334  0.43750000  1
  Ir  Ir36  1  0.08333333  0.33333333  0.56250000  1
  Ir  Ir37  1  0.08333333  0.66666666  0.56250000  1
  Ir  Ir38  1  0.08333333  1.00000000  0.56250000  1
  Ir  Ir39  1  0.41666667  0.33333333  0.56250000  1
  Ir  Ir40  1  0.41666667  0.66666666  0.56250000  1
  Ir  Ir41  1  0.41666667  1.00000000  0.56250000  1
  Ir  Ir42  1  0.75000000  0.33333333  0.56250000  1
  Ir  Ir43  1  0.75000000  0.66666666  0.56250000  1
  Ir  Ir44  1  0.75000000  1.00000000  0.56250000  1
  Ir  Ir45  1  0.25000000  0.16666667  0.52083333  1
  Ir  Ir46  1  0.25000000  0.50000000  0.52083333  1
  Ir  Ir47  1  0.25000000  0.83333334  0.52083333  1
  Ir  Ir48  1  0.58333333  0.16666667  0.52083333  1
  Ir  Ir49  1  0.58333333  0.50000000  0.52083333  1
  Ir  Ir50  1  0.58333333  0.83333334  0.52083333  1
  Ir  Ir51  1  0.91666667  0.16666667  0.52083333  1
  Ir  Ir52  1  0.91666667  0.50000000  0.52083333  1
  Ir  Ir53  1  0.91666667  0.83333334  0.52083333  1
  Ir  Ir54  1  0.08333341  0.33333408  0.64223244  1
  Ir  Ir55  1  0.08333313  0.66666593  0.64223237  1
  Ir  Ir56  1  0.08333339  0.99999997  0.64223384  1
  Ir  Ir57  1  0.41666658  0.33333393  0.64223239  1
  Ir  Ir58  1  0.41666675  0.66666601  0.64223240  1
  Ir  Ir59  1  0.41666690  0.00000003  0.64223364  1
  Ir  Ir60  1  0.74999995  0.33333402  0.64223244  1
  Ir  Ir61  1  0.75000005  0.66666599  0.64223231  1
  Ir  Ir62  1  0.74999966  0.99999995  0.64223369  1
  Ir  Ir63  1  0.25000046  0.16666932  0.60580056  1
  Ir  Ir64  1  0.25000001  0.49999991  0.60580089  1
  Ir  Ir65  1  0.25000033  0.83333076  0.60580052  1
  Ir  Ir66  1  0.58333303  0.16666901  0.60580057  1
  Ir  Ir67  1  0.58333333  0.50000008  0.60580087  1
  Ir  Ir68  1  0.58333332  0.83333090  0.60580056  1
  Ir  Ir69  1  0.91666649  0.16666930  0.60580052  1
  Ir  Ir70  1  0.91666666  0.50000022  0.60580088  1
  Ir  Ir71  1  0.91666634  0.83333049  0.60580052  1
