# generated using pymatgen
data_Pt
_symmetry_space_group_name_H-M   'P 1'
_cell_length_a   8.46410549
_cell_length_b   11.97005228
_cell_length_c   33.85642228
_cell_angle_alpha   89.99999919
_cell_angle_beta   90.00000061
_cell_angle_gamma   90.00000096
_symmetry_Int_Tables_number   1
_chemical_formula_structural   Pt
_chemical_formula_sum   Pt72
_cell_volume   3430.19000800
_cell_formula_units_Z   72
loop_
 _symmetry_equiv_pos_site_id
 _symmetry_equiv_pos_as_xyz
  1  'x, y, z'
loop_
 _atom_site_type_symbol
 _atom_site_label
 _atom_site_symmetry_multiplicity
 _atom_site_fract_x
 _atom_site_fract_y
 _atom_site_fract_z
 _atom_site_occupancy
  Pt  Pt0  1  0.25000000  0.00000000  0.39583333  1
  Pt  Pt1  1  0.25000000  0.33333333  0.39583333  1
  Pt  Pt2  1  0.25000000  0.66666667  0.39583333  1
  Pt  Pt3  1  0.58333333  0.00000000  0.39583333  1
  Pt  Pt4  1  0.58333333  0.33333333  0.39583333  1
  Pt  Pt5  1  0.58333333  0.66666667  0.39583333  1
  Pt  Pt6  1  0.91666666  0.00000000  0.39583333  1
  Pt  Pt7  1  0.91666666  0.33333333  0.39583333  1
  Pt  Pt8  1  0.91666666  0.66666667  0.39583333  1
  Pt  Pt9  1  0.08333334  0.16666667  0.35416667  1
  Pt  Pt10  1  0.08333334  0.50000000  0.35416667  1
  Pt  Pt11  1  0.08333334  0.83333333  0.35416667  1
  Pt  Pt12  1  0.41666667  0.16666667  0.35416667  1
  Pt  Pt13  1  0.41666667  0.50000000  0.35416667  1
  Pt  Pt14  1  0.41666667  0.83333333  0.35416667  1
  Pt  Pt15  1  0.75000000  0.16666667  0.35416667  1
  Pt  Pt16  1  0.75000000  0.50000000  0.35416667  1
  Pt  Pt17  1  0.75000000  0.83333333  0.35416667  1
  Pt  Pt18  1  0.25000000  0.00000000  0.47916667  1
  Pt  Pt19  1  0.25000000  0.33333333  0.47916667  1
  Pt  Pt20  1  0.25000000  0.66666667  0.47916667  1
  Pt  Pt21  1  0.58333333  0.00000000  0.47916667  1
  Pt  Pt22  1  0.58333333  0.33333333  0.47916667  1
  Pt  Pt23  1  0.58333333  0.66666667  0.47916667  1
  Pt  Pt24  1  0.91666666  0.00000000  0.47916667  1
  Pt  Pt25  1  0.91666666  0.33333333  0.47916667  1
  Pt  Pt26  1  0.91666666  0.66666667  0.47916667  1
  Pt  Pt27  1  0.08333334  0.16666667  0.43750000  1
  Pt  Pt28  1  0.08333334  0.50000000  0.43750000  1
  Pt  Pt29  1  0.08333334  0.83333333  0.43750000  1
  Pt  Pt30  1  0.41666667  0.16666667  0.43750000  1
  Pt  Pt31  1  0.41666667  0.50000000  0.43750000  1
  Pt  Pt32  1  0.41666667  0.83333333  0.43750000  1
  Pt  Pt33  1  0.75000000  0.16666667  0.43750000  1
  Pt  Pt34  1  0.75000000  0.50000000  0.43750000  1
  Pt  Pt35  1  0.75000000  0.83333333  0.43750000  1
  Pt  Pt36  1  0.25000000  0.00000000  0.56250000  1
  Pt  Pt37  1  0.25000000  0.33333333  0.56250000  1
  Pt  Pt38  1  0.25000000  0.66666667  0.56250000  1
  Pt  Pt39  1  0.58333333  0.00000000  0.56250000  1
  Pt  Pt40  1  0.58333333  0.33333333  0.56250000  1
  Pt  Pt41  1  0.58333333  0.66666667  0.56250000  1
  Pt  Pt42  1  0.91666666  0.00000000  0.56250000  1
  Pt  Pt43  1  0.91666666  0.33333333  0.56250000  1
  Pt  Pt44  1  0.91666666  0.66666667  0.56250000  1
  Pt  Pt45  1  0.08333334  0.16666667  0.52083333  1
  Pt  Pt46  1  0.08333334  0.50000000  0.52083333  1
  Pt  Pt47  1  0.08333334  0.83333333  0.52083333  1
  Pt  Pt48  1  0.41666667  0.16666667  0.52083333  1
  Pt  Pt49  1  0.41666667  0.50000000  0.52083333  1
  Pt  Pt50  1  0.41666667  0.83333333  0.52083333  1
  Pt  Pt51  1  0.75000000  0.16666667  0.52083333  1
  Pt  Pt52  1  0.75000000  0.50000000  0.52083333  1
  Pt  Pt53  1  0.75000000  0.83333333  0.52083333  1
  Pt  Pt54  1  0.25000009  0.99999988  0.64256480  1
  Pt  Pt55  1  0.24999985  0.33333343  0.64256496  1
  Pt  Pt56  1  0.24999995  0.66666669  0.64256478  1
  Pt  Pt57  1  0.58333319  0.99999994  0.64256485  1
  Pt  Pt58  1  0.58333346  0.33333330  0.64256493  1
  Pt  Pt59  1  0.58333321  0.66666676  0.64256490  1
  Pt  Pt60  1  0.91666671  0.00000004  0.64256494  1
  Pt  Pt61  1  0.91666668  0.33333333  0.64256482  1
  Pt  Pt62  1  0.91666683  0.66666662  0.64256481  1
  Pt  Pt63  1  0.08333293  0.16666652  0.60757946  1
  Pt  Pt64  1  0.08333323  0.50000024  0.60757951  1
  Pt  Pt65  1  0.08333347  0.83333325  0.60757946  1
  Pt  Pt66  1  0.41666689  0.16666639  0.60757948  1
  Pt  Pt67  1  0.41666653  0.50000027  0.60757956  1
  Pt  Pt68  1  0.41666663  0.83333335  0.60757956  1
  Pt  Pt69  1  0.75000020  0.16666652  0.60757941  1
  Pt  Pt70  1  0.75000023  0.50000009  0.60757935  1
  Pt  Pt71  1  0.74999991  0.83333340  0.60757946  1
