# generated using pymatgen
data_Ir
_symmetry_space_group_name_H-M   'P 1'
_cell_length_a   8.24647686
_cell_length_b   8.24647645
_cell_length_c   31.46174735
_cell_angle_alpha   87.49622098
_cell_angle_beta   87.49622604
_cell_angle_gamma   59.99999804
_symmetry_Int_Tables_number   1
_chemical_formula_structural   Ir
_chemical_formula_sum   Ir45
_cell_volume   1850.53407863
_cell_formula_units_Z   45
loop_
 _symmetry_equiv_pos_site_id
 _symmetry_equiv_pos_as_xyz
  1  'x, y, z'
loop_
 _atom_site_type_symbol
 _atom_site_label
 _atom_site_symmetry_multiplicity
 _atom_site_fract_x
 _atom_site_fract_y
 _atom_site_fract_z
 _atom_site_occupancy
  Ir  Ir0  1  0.26206335  0.26206342  0.64142819  1
  Ir  Ir1  1  0.26206351  0.59539653  0.64142840  1
  Ir  Ir2  1  0.26206371  0.92873040  0.64142832  1
  Ir  Ir3  1  0.59539630  0.26206378  0.64142846  1
  Ir  Ir4  1  0.59539676  0.59539694  0.64142840  1
  Ir  Ir5  1  0.59539622  0.92873023  0.64142836  1
  Ir  Ir6  1  0.92873053  0.26206367  0.64142840  1
  Ir  Ir7  1  0.92873044  0.59539631  0.64142836  1
  Ir  Ir8  1  0.92873041  0.92872988  0.64142858  1
  Ir  Ir9  1  0.04761905  0.04761905  0.57142857  1
  Ir  Ir10  1  0.04761905  0.38095238  0.57142857  1
  Ir  Ir11  1  0.04761905  0.71428571  0.57142857  1
  Ir  Ir12  1  0.38095238  0.04761905  0.57142857  1
  Ir  Ir13  1  0.38095238  0.38095238  0.57142857  1
  Ir  Ir14  1  0.38095238  0.71428571  0.57142857  1
  Ir  Ir15  1  0.71428571  0.04761905  0.57142857  1
  Ir  Ir16  1  0.71428571  0.38095238  0.57142857  1
  Ir  Ir17  1  0.71428571  0.71428571  0.57142857  1
  Ir  Ir18  1  0.16666667  0.16666667  0.50000000  1
  Ir  Ir19  1  0.16666667  0.50000000  0.50000000  1
  Ir  Ir20  1  0.16666667  0.83333333  0.50000000  1
  Ir  Ir21  1  0.50000000  0.16666667  0.50000000  1
  Ir  Ir22  1  0.50000000  0.50000000  0.50000000  1
  Ir  Ir23  1  0.50000000  0.83333333  0.50000000  1
  Ir  Ir24  1  0.83333333  0.16666667  0.50000000  1
  Ir  Ir25  1  0.83333333  0.50000000  0.50000000  1
  Ir  Ir26  1  0.83333333  0.83333333  0.50000000  1
  Ir  Ir27  1  0.28571429  0.28571429  0.42857143  1
  Ir  Ir28  1  0.28571429  0.61904762  0.42857143  1
  Ir  Ir29  1  0.28571429  0.95238095  0.42857143  1
  Ir  Ir30  1  0.61904762  0.28571429  0.42857143  1
  Ir  Ir31  1  0.61904762  0.61904762  0.42857143  1
  Ir  Ir32  1  0.61904762  0.95238095  0.42857143  1
  Ir  Ir33  1  0.95238095  0.28571429  0.42857143  1
  Ir  Ir34  1  0.95238095  0.61904762  0.42857143  1
  Ir  Ir35  1  0.95238095  0.95238095  0.42857143  1
  Ir  Ir36  1  0.07142857  0.07142857  0.35714286  1
  Ir  Ir37  1  0.07142857  0.40476190  0.35714286  1
  Ir  Ir38  1  0.07142857  0.73809524  0.35714286  1
  Ir  Ir39  1  0.40476190  0.07142857  0.35714286  1
  Ir  Ir40  1  0.40476190  0.40476190  0.35714286  1
  Ir  Ir41  1  0.40476190  0.73809524  0.35714286  1
  Ir  Ir42  1  0.73809524  0.07142857  0.35714286  1
  Ir  Ir43  1  0.73809524  0.40476190  0.35714286  1
  Ir  Ir44  1  0.73809524  0.73809524  0.35714286  1
