# generated using pymatgen
data_Pt
_symmetry_space_group_name_H-M   'P 1'
_cell_length_a   8.46410531
_cell_length_b   8.46410548
_cell_length_c   32.29203840
_cell_angle_alpha   87.49622650
_cell_angle_beta   87.49622381
_cell_angle_gamma   59.99999892
_symmetry_Int_Tables_number   1
_chemical_formula_structural   Pt
_chemical_formula_sum   Pt45
_cell_volume   2000.94416877
_cell_formula_units_Z   45
loop_
 _symmetry_equiv_pos_site_id
 _symmetry_equiv_pos_as_xyz
  1  'x, y, z'
loop_
 _atom_site_type_symbol
 _atom_site_label
 _atom_site_symmetry_multiplicity
 _atom_site_fract_x
 _atom_site_fract_y
 _atom_site_fract_z
 _atom_site_occupancy
  Pt  Pt0  1  0.26181709  0.26181624  0.64364434  1
  Pt  Pt1  1  0.26181729  0.59515029  0.64364423  1
  Pt  Pt2  1  0.26181805  0.92848427  0.64364394  1
  Pt  Pt3  1  0.59514951  0.26181718  0.64364429  1
  Pt  Pt4  1  0.59515015  0.59515181  0.64364397  1
  Pt  Pt5  1  0.59514920  0.92848364  0.64364416  1
  Pt  Pt6  1  0.92848506  0.26181720  0.64364422  1
  Pt  Pt7  1  0.92848355  0.59514995  0.64364443  1
  Pt  Pt8  1  0.92848410  0.92848347  0.64364433  1
  Pt  Pt9  1  0.04761905  0.04761905  0.57142857  1
  Pt  Pt10  1  0.04761905  0.38095238  0.57142857  1
  Pt  Pt11  1  0.04761905  0.71428571  0.57142857  1
  Pt  Pt12  1  0.38095238  0.04761905  0.57142857  1
  Pt  Pt13  1  0.38095238  0.38095238  0.57142857  1
  Pt  Pt14  1  0.38095238  0.71428571  0.57142857  1
  Pt  Pt15  1  0.71428571  0.04761905  0.57142857  1
  Pt  Pt16  1  0.71428571  0.38095238  0.57142857  1
  Pt  Pt17  1  0.71428571  0.71428571  0.57142857  1
  Pt  Pt18  1  0.16666667  0.16666667  0.50000000  1
  Pt  Pt19  1  0.16666667  0.50000000  0.50000000  1
  Pt  Pt20  1  0.16666667  0.83333333  0.50000000  1
  Pt  Pt21  1  0.50000000  0.16666667  0.50000000  1
  Pt  Pt22  1  0.50000000  0.50000000  0.50000000  1
  Pt  Pt23  1  0.50000000  0.83333333  0.50000000  1
  Pt  Pt24  1  0.83333333  0.16666667  0.50000000  1
  Pt  Pt25  1  0.83333333  0.50000000  0.50000000  1
  Pt  Pt26  1  0.83333333  0.83333333  0.50000000  1
  Pt  Pt27  1  0.28571429  0.28571429  0.42857143  1
  Pt  Pt28  1  0.28571429  0.61904762  0.42857143  1
  Pt  Pt29  1  0.28571429  0.95238095  0.42857143  1
  Pt  Pt30  1  0.61904762  0.28571429  0.42857143  1
  Pt  Pt31  1  0.61904762  0.61904762  0.42857143  1
  Pt  Pt32  1  0.61904762  0.95238095  0.42857143  1
  Pt  Pt33  1  0.95238095  0.28571429  0.42857143  1
  Pt  Pt34  1  0.95238095  0.61904762  0.42857143  1
  Pt  Pt35  1  0.95238095  0.95238095  0.42857143  1
  Pt  Pt36  1  0.07142857  0.07142857  0.35714286  1
  Pt  Pt37  1  0.07142857  0.40476190  0.35714286  1
  Pt  Pt38  1  0.07142857  0.73809524  0.35714286  1
  Pt  Pt39  1  0.40476190  0.07142857  0.35714286  1
  Pt  Pt40  1  0.40476190  0.40476190  0.35714286  1
  Pt  Pt41  1  0.40476190  0.73809524  0.35714286  1
  Pt  Pt42  1  0.73809524  0.07142857  0.35714286  1
  Pt  Pt43  1  0.73809524  0.40476190  0.35714286  1
  Pt  Pt44  1  0.73809524  0.73809524  0.35714286  1
