# generated using pymatgen
data_Pd
_symmetry_space_group_name_H-M   'P 1'
_cell_length_a   8.44515616
_cell_length_b   8.44515603
_cell_length_c   32.21974320
_cell_angle_alpha   87.49622426
_cell_angle_beta   87.49622511
_cell_angle_gamma   59.99999969
_symmetry_Int_Tables_number   1
_chemical_formula_structural   Pd
_chemical_formula_sum   Pd45
_cell_volume   1987.53518335
_cell_formula_units_Z   45
loop_
 _symmetry_equiv_pos_site_id
 _symmetry_equiv_pos_as_xyz
  1  'x, y, z'
loop_
 _atom_site_type_symbol
 _atom_site_label
 _atom_site_symmetry_multiplicity
 _atom_site_fract_x
 _atom_site_fract_y
 _atom_site_fract_z
 _atom_site_occupancy
  Pd  Pd0  1  0.26190476  0.26190476  0.64285714  1
  Pd  Pd1  1  0.26190476  0.59523810  0.64285714  1
  Pd  Pd2  1  0.26190476  0.92857143  0.64285714  1
  Pd  Pd3  1  0.59523810  0.26190476  0.64285714  1
  Pd  Pd4  1  0.59523810  0.59523810  0.64285714  1
  Pd  Pd5  1  0.59523810  0.92857143  0.64285714  1
  Pd  Pd6  1  0.92857143  0.26190476  0.64285714  1
  Pd  Pd7  1  0.92857143  0.59523810  0.64285714  1
  Pd  Pd8  1  0.92857143  0.92857143  0.64285714  1
  Pd  Pd9  1  0.04761905  0.04761905  0.57142857  1
  Pd  Pd10  1  0.04761905  0.38095238  0.57142857  1
  Pd  Pd11  1  0.04761905  0.71428571  0.57142857  1
  Pd  Pd12  1  0.38095238  0.04761905  0.57142857  1
  Pd  Pd13  1  0.38095238  0.38095238  0.57142857  1
  Pd  Pd14  1  0.38095238  0.71428571  0.57142857  1
  Pd  Pd15  1  0.71428571  0.04761905  0.57142857  1
  Pd  Pd16  1  0.71428571  0.38095238  0.57142857  1
  Pd  Pd17  1  0.71428571  0.71428571  0.57142857  1
  Pd  Pd18  1  0.16666667  0.16666667  0.50000000  1
  Pd  Pd19  1  0.16666667  0.50000000  0.50000000  1
  Pd  Pd20  1  0.16666667  0.83333333  0.50000000  1
  Pd  Pd21  1  0.50000000  0.16666667  0.50000000  1
  Pd  Pd22  1  0.50000000  0.50000000  0.50000000  1
  Pd  Pd23  1  0.50000000  0.83333333  0.50000000  1
  Pd  Pd24  1  0.83333333  0.16666667  0.50000000  1
  Pd  Pd25  1  0.83333333  0.50000000  0.50000000  1
  Pd  Pd26  1  0.83333333  0.83333333  0.50000000  1
  Pd  Pd27  1  0.28571429  0.28571429  0.42857143  1
  Pd  Pd28  1  0.28571429  0.61904762  0.42857143  1
  Pd  Pd29  1  0.28571429  0.95238095  0.42857143  1
  Pd  Pd30  1  0.61904762  0.28571429  0.42857143  1
  Pd  Pd31  1  0.61904762  0.61904762  0.42857143  1
  Pd  Pd32  1  0.61904762  0.95238095  0.42857143  1
  Pd  Pd33  1  0.95238095  0.28571429  0.42857143  1
  Pd  Pd34  1  0.95238095  0.61904762  0.42857143  1
  Pd  Pd35  1  0.95238095  0.95238095  0.42857143  1
  Pd  Pd36  1  0.07142857  0.07142857  0.35714286  1
  Pd  Pd37  1  0.07142857  0.40476190  0.35714286  1
  Pd  Pd38  1  0.07142857  0.73809524  0.35714286  1
  Pd  Pd39  1  0.40476190  0.07142857  0.35714286  1
  Pd  Pd40  1  0.40476190  0.40476190  0.35714286  1
  Pd  Pd41  1  0.40476190  0.73809524  0.35714286  1
  Pd  Pd42  1  0.73809524  0.07142857  0.35714286  1
  Pd  Pd43  1  0.73809524  0.40476190  0.35714286  1
  Pd  Pd44  1  0.73809524  0.73809524  0.35714286  1
