# generated using pymatgen
data_Pd
_symmetry_space_group_name_H-M   'P 1'
_cell_length_a   8.44515604
_cell_length_b   8.44515606
_cell_length_c   35.82976315
_cell_angle_alpha   89.99999973
_cell_angle_beta   89.99999980
_cell_angle_gamma   90.00000129
_symmetry_Int_Tables_number   1
_chemical_formula_structural   Pd
_chemical_formula_sum   Pd54
_cell_volume   2555.40238090
_cell_formula_units_Z   54
loop_
 _symmetry_equiv_pos_site_id
 _symmetry_equiv_pos_as_xyz
  1  'x, y, z'
loop_
 _atom_site_type_symbol
 _atom_site_label
 _atom_site_symmetry_multiplicity
 _atom_site_fract_x
 _atom_site_fract_y
 _atom_site_fract_z
 _atom_site_occupancy
  Pd  Pd0  1  0.00000016  0.33333332  0.58353841  1
  Pd  Pd1  1  0.00000016  0.66666661  0.58353839  1
  Pd  Pd2  1  0.00000017  0.00000007  0.58353838  1
  Pd  Pd3  1  0.33333345  0.33333332  0.58353841  1
  Pd  Pd4  1  0.33333345  0.66666661  0.58353840  1
  Pd  Pd5  1  0.33333344  0.00000006  0.58353839  1
  Pd  Pd6  1  0.66666639  0.33333333  0.58353842  1
  Pd  Pd7  1  0.66666639  0.66666660  0.58353840  1
  Pd  Pd8  1  0.66666640  0.00000007  0.58353839  1
  Pd  Pd9  1  0.16666690  0.16666672  0.63848799  1
  Pd  Pd10  1  0.16666691  0.49999996  0.63848797  1
  Pd  Pd11  1  0.16666693  0.83333332  0.63848800  1
  Pd  Pd12  1  0.49999987  0.16666673  0.63848798  1
  Pd  Pd13  1  0.49999988  0.49999996  0.63848797  1
  Pd  Pd14  1  0.49999985  0.83333332  0.63848800  1
  Pd  Pd15  1  0.83333323  0.16666675  0.63848800  1
  Pd  Pd16  1  0.83333321  0.49999993  0.63848798  1
  Pd  Pd17  1  0.83333323  0.83333332  0.63848802  1
  Pd  Pd18  1  0.00000000  0.33333333  0.47222222  1
  Pd  Pd19  1  0.00000000  0.66666667  0.47222222  1
  Pd  Pd20  1  0.00000000  1.00000000  0.47222222  1
  Pd  Pd21  1  0.33333333  0.33333333  0.47222222  1
  Pd  Pd22  1  0.33333333  0.66666667  0.47222222  1
  Pd  Pd23  1  0.33333333  1.00000000  0.47222222  1
  Pd  Pd24  1  0.66666667  0.33333333  0.47222222  1
  Pd  Pd25  1  0.66666667  0.66666667  0.47222222  1
  Pd  Pd26  1  0.66666667  1.00000000  0.47222222  1
  Pd  Pd27  1  0.16666667  0.16666667  0.52777778  1
  Pd  Pd28  1  0.16666667  0.50000000  0.52777778  1
  Pd  Pd29  1  0.16666667  0.83333333  0.52777778  1
  Pd  Pd30  1  0.50000000  0.16666667  0.52777778  1
  Pd  Pd31  1  0.50000000  0.50000000  0.52777778  1
  Pd  Pd32  1  0.50000000  0.83333333  0.52777778  1
  Pd  Pd33  1  0.83333333  0.16666667  0.52777778  1
  Pd  Pd34  1  0.83333333  0.50000000  0.52777778  1
  Pd  Pd35  1  0.83333333  0.83333333  0.52777778  1
  Pd  Pd36  1  0.00000000  0.33333333  0.36111111  1
  Pd  Pd37  1  0.00000000  0.66666667  0.36111111  1
  Pd  Pd38  1  0.00000000  1.00000000  0.36111111  1
  Pd  Pd39  1  0.33333333  0.33333333  0.36111111  1
  Pd  Pd40  1  0.33333333  0.66666667  0.36111111  1
  Pd  Pd41  1  0.33333333  1.00000000  0.36111111  1
  Pd  Pd42  1  0.66666667  0.33333333  0.36111111  1
  Pd  Pd43  1  0.66666667  0.66666667  0.36111111  1
  Pd  Pd44  1  0.66666667  1.00000000  0.36111111  1
  Pd  Pd45  1  0.16666667  0.16666667  0.41666667  1
  Pd  Pd46  1  0.16666667  0.50000000  0.41666667  1
  Pd  Pd47  1  0.16666667  0.83333333  0.41666667  1
  Pd  Pd48  1  0.50000000  0.16666667  0.41666667  1
  Pd  Pd49  1  0.50000000  0.50000000  0.41666667  1
  Pd  Pd50  1  0.50000000  0.83333333  0.41666667  1
  Pd  Pd51  1  0.83333333  0.16666667  0.41666667  1
  Pd  Pd52  1  0.83333333  0.50000000  0.41666667  1
  Pd  Pd53  1  0.83333333  0.83333333  0.41666667  1
