# generated using pymatgen
data_Cu
_symmetry_space_group_name_H-M   'P 1'
_cell_length_a   10.38172216
_cell_length_b   11.01147906
_cell_length_c   31.14516940
_cell_angle_alpha   89.99998132
_cell_angle_beta   89.99998101
_cell_angle_gamma   89.99998590
_symmetry_Int_Tables_number   1
_chemical_formula_structural   Cu
_chemical_formula_sum   Cu96
_cell_volume   3560.45709365
_cell_formula_units_Z   96
loop_
 _symmetry_equiv_pos_site_id
 _symmetry_equiv_pos_as_xyz
  1  'x, y, z'
loop_
 _atom_site_type_symbol
 _atom_site_label
 _atom_site_symmetry_multiplicity
 _atom_site_fract_x
 _atom_site_fract_y
 _atom_site_fract_z
 _atom_site_occupancy
  Cu  Cu0  1  0.18750000  0.99999998  0.60620917  1
  Cu  Cu1  1  0.18750001  0.33336811  0.60620937  1
  Cu  Cu2  1  0.18750001  0.66663188  0.60620937  1
  Cu  Cu3  1  0.43750002  0.99999998  0.60620916  1
  Cu  Cu4  1  0.43750002  0.33336810  0.60620937  1
  Cu  Cu5  1  0.43750003  0.66663188  0.60620936  1
  Cu  Cu6  1  0.68750000  0.99999999  0.60620915  1
  Cu  Cu7  1  0.68750000  0.33336810  0.60620936  1
  Cu  Cu8  1  0.68750001  0.66663188  0.60620935  1
  Cu  Cu9  1  0.93749998  0.99999998  0.60620916  1
  Cu  Cu10  1  0.93749997  0.33336811  0.60620936  1
  Cu  Cu11  1  0.93749997  0.66663188  0.60620936  1
  Cu  Cu12  1  0.06249998  0.16663583  0.64390362  1
  Cu  Cu13  1  0.06250000  0.49999999  0.64390309  1
  Cu  Cu14  1  0.06249998  0.83336412  0.64390361  1
  Cu  Cu15  1  0.31250001  0.16663582  0.64390362  1
  Cu  Cu16  1  0.31250001  0.50000000  0.64390310  1
  Cu  Cu17  1  0.31250002  0.83336412  0.64390361  1
  Cu  Cu18  1  0.56249998  0.16663581  0.64390361  1
  Cu  Cu19  1  0.56249998  0.50000001  0.64390309  1
  Cu  Cu20  1  0.56250000  0.83336412  0.64390359  1
  Cu  Cu21  1  0.81249999  0.16663582  0.64390361  1
  Cu  Cu22  1  0.81250000  0.50000001  0.64390309  1
  Cu  Cu23  1  0.81249999  0.83336412  0.64390360  1
  Cu  Cu24  1  0.18750000  0.00000000  0.52083334  1
  Cu  Cu25  1  0.18750000  0.33333334  0.52083334  1
  Cu  Cu26  1  0.18750000  0.66666667  0.52083334  1
  Cu  Cu27  1  0.43750000  0.00000000  0.52083334  1
  Cu  Cu28  1  0.43750000  0.33333334  0.52083334  1
  Cu  Cu29  1  0.43750000  0.66666667  0.52083334  1
  Cu  Cu30  1  0.68750000  0.00000000  0.52083334  1
  Cu  Cu31  1  0.68750000  0.33333334  0.52083334  1
  Cu  Cu32  1  0.68750000  0.66666667  0.52083334  1
  Cu  Cu33  1  0.93750000  0.00000000  0.52083334  1
  Cu  Cu34  1  0.93750000  0.33333334  0.52083334  1
  Cu  Cu35  1  0.93750000  0.66666667  0.52083334  1
  Cu  Cu36  1  0.06250000  0.16666666  0.56250000  1
  Cu  Cu37  1  0.06250000  0.50000000  0.56250000  1
  Cu  Cu38  1  0.06250000  0.83333333  0.56250000  1
  Cu  Cu39  1  0.31250000  0.16666666  0.56250000  1
  Cu  Cu40  1  0.31250000  0.50000000  0.56250000  1
  Cu  Cu41  1  0.31250000  0.83333333  0.56250000  1
  Cu  Cu42  1  0.56250000  0.16666666  0.56250000  1
  Cu  Cu43  1  0.56250000  0.50000000  0.56250000  1
  Cu  Cu44  1  0.56250000  0.83333333  0.56250000  1
  Cu  Cu45  1  0.81250000  0.16666666  0.56250000  1
  Cu  Cu46  1  0.81250000  0.50000000  0.56250000  1
  Cu  Cu47  1  0.81250000  0.83333333  0.56250000  1
  Cu  Cu48  1  0.18750000  0.00000000  0.43750000  1
  Cu  Cu49  1  0.18750000  0.33333334  0.43750000  1
  Cu  Cu50  1  0.18750000  0.66666667  0.43750000  1
  Cu  Cu51  1  0.43750000  0.00000000  0.43750000  1
  Cu  Cu52  1  0.43750000  0.33333334  0.43750000  1
  Cu  Cu53  1  0.43750000  0.66666667  0.43750000  1
  Cu  Cu54  1  0.68750000  0.00000000  0.43750000  1
  Cu  Cu55  1  0.68750000  0.33333334  0.43750000  1
  Cu  Cu56  1  0.68750000  0.66666667  0.43750000  1
  Cu  Cu57  1  0.93750000  0.00000000  0.43750000  1
  Cu  Cu58  1  0.93750000  0.33333334  0.43750000  1
  Cu  Cu59  1  0.93750000  0.66666667  0.43750000  1
  Cu  Cu60  1  0.06250000  0.16666666  0.47916666  1
  Cu  Cu61  1  0.06250000  0.50000000  0.47916666  1
  Cu  Cu62  1  0.06250000  0.83333333  0.47916666  1
  Cu  Cu63  1  0.31250000  0.16666666  0.47916666  1
  Cu  Cu64  1  0.31250000  0.50000000  0.47916666  1
  Cu  Cu65  1  0.31250000  0.83333333  0.47916666  1
  Cu  Cu66  1  0.56250000  0.16666666  0.47916666  1
  Cu  Cu67  1  0.56250000  0.50000000  0.47916666  1
  Cu  Cu68  1  0.56250000  0.83333333  0.47916666  1
  Cu  Cu69  1  0.81250000  0.16666666  0.47916666  1
  Cu  Cu70  1  0.81250000  0.50000000  0.47916666  1
  Cu  Cu71  1  0.81250000  0.83333333  0.47916666  1
  Cu  Cu72  1  0.18750000  0.00000000  0.35416667  1
  Cu  Cu73  1  0.18750000  0.33333334  0.35416667  1
  Cu  Cu74  1  0.18750000  0.66666667  0.35416667  1
  Cu  Cu75  1  0.43750000  0.00000000  0.35416667  1
  Cu  Cu76  1  0.43750000  0.33333334  0.35416667  1
  Cu  Cu77  1  0.43750000  0.66666667  0.35416667  1
  Cu  Cu78  1  0.68750000  0.00000000  0.35416667  1
  Cu  Cu79  1  0.68750000  0.33333334  0.35416667  1
  Cu  Cu80  1  0.68750000  0.66666667  0.35416667  1
  Cu  Cu81  1  0.93750000  0.00000000  0.35416667  1
  Cu  Cu82  1  0.93750000  0.33333334  0.35416667  1
  Cu  Cu83  1  0.93750000  0.66666667  0.35416667  1
  Cu  Cu84  1  0.06250000  0.16666666  0.39583333  1
  Cu  Cu85  1  0.06250000  0.50000000  0.39583333  1
  Cu  Cu86  1  0.06250000  0.83333333  0.39583333  1
  Cu  Cu87  1  0.31250000  0.16666666  0.39583333  1
  Cu  Cu88  1  0.31250000  0.50000000  0.39583333  1
  Cu  Cu89  1  0.31250000  0.83333333  0.39583333  1
  Cu  Cu90  1  0.56250000  0.16666666  0.39583333  1
  Cu  Cu91  1  0.56250000  0.50000000  0.39583333  1
  Cu  Cu92  1  0.56250000  0.83333333  0.39583333  1
  Cu  Cu93  1  0.81250000  0.16666666  0.39583333  1
  Cu  Cu94  1  0.81250000  0.50000000  0.39583333  1
  Cu  Cu95  1  0.81250000  0.83333333  0.39583333  1
