# generated using pymatgen
data_Cu
_symmetry_space_group_name_H-M   'P 1'
_cell_length_a   10.38172529
_cell_length_b   10.38172216
_cell_length_c   31.78739939
_cell_angle_alpha   90.00000734
_cell_angle_beta   89.99998593
_cell_angle_gamma   120.00001250
_symmetry_Int_Tables_number   1
_chemical_formula_structural   Cu
_chemical_formula_sum   Cu80
_cell_volume   2967.04757629
_cell_formula_units_Z   80
loop_
 _symmetry_equiv_pos_site_id
 _symmetry_equiv_pos_as_xyz
  1  'x, y, z'
loop_
 _atom_site_type_symbol
 _atom_site_label
 _atom_site_symmetry_multiplicity
 _atom_site_fract_x
 _atom_site_fract_y
 _atom_site_fract_z
 _atom_site_occupancy
  Cu  Cu0  1  0.16666667  0.08333333  0.36666667  1
  Cu  Cu1  1  0.16666667  0.33333333  0.36666667  1
  Cu  Cu2  1  0.16666667  0.58333333  0.36666667  1
  Cu  Cu3  1  0.16666667  0.83333333  0.36666667  1
  Cu  Cu4  1  0.41666667  0.08333333  0.36666667  1
  Cu  Cu5  1  0.41666667  0.33333333  0.36666667  1
  Cu  Cu6  1  0.41666667  0.58333333  0.36666667  1
  Cu  Cu7  1  0.41666667  0.83333333  0.36666667  1
  Cu  Cu8  1  0.66666667  0.08333333  0.36666667  1
  Cu  Cu9  1  0.66666667  0.33333333  0.36666667  1
  Cu  Cu10  1  0.66666667  0.58333333  0.36666667  1
  Cu  Cu11  1  0.66666667  0.83333333  0.36666667  1
  Cu  Cu12  1  0.91666667  0.08333333  0.36666667  1
  Cu  Cu13  1  0.91666667  0.33333333  0.36666667  1
  Cu  Cu14  1  0.91666667  0.58333333  0.36666667  1
  Cu  Cu15  1  0.91666667  0.83333333  0.36666667  1
  Cu  Cu16  1  0.08333333  0.16666667  0.43333333  1
  Cu  Cu17  1  0.08333333  0.41666667  0.43333333  1
  Cu  Cu18  1  0.08333333  0.66666667  0.43333333  1
  Cu  Cu19  1  0.08333333  0.91666667  0.43333333  1
  Cu  Cu20  1  0.33333333  0.16666667  0.43333333  1
  Cu  Cu21  1  0.33333333  0.41666667  0.43333333  1
  Cu  Cu22  1  0.33333333  0.66666667  0.43333333  1
  Cu  Cu23  1  0.33333333  0.91666667  0.43333333  1
  Cu  Cu24  1  0.58333333  0.16666667  0.43333333  1
  Cu  Cu25  1  0.58333333  0.41666667  0.43333333  1
  Cu  Cu26  1  0.58333333  0.66666667  0.43333333  1
  Cu  Cu27  1  0.58333333  0.91666667  0.43333333  1
  Cu  Cu28  1  0.83333333  0.16666667  0.43333333  1
  Cu  Cu29  1  0.83333333  0.41666667  0.43333333  1
  Cu  Cu30  1  0.83333333  0.66666667  0.43333333  1
  Cu  Cu31  1  0.83333333  0.91666667  0.43333333  1
  Cu  Cu32  1  0.00000000  0.00000000  0.50000000  1
  Cu  Cu33  1  0.00000000  0.25000000  0.50000000  1
  Cu  Cu34  1  0.00000000  0.50000000  0.50000000  1
  Cu  Cu35  1  0.00000000  0.75000000  0.50000000  1
  Cu  Cu36  1  0.25000000  0.00000000  0.50000000  1
  Cu  Cu37  1  0.25000000  0.25000000  0.50000000  1
  Cu  Cu38  1  0.25000000  0.50000000  0.50000000  1
  Cu  Cu39  1  0.25000000  0.75000000  0.50000000  1
  Cu  Cu40  1  0.50000000  0.00000000  0.50000000  1
  Cu  Cu41  1  0.50000000  0.25000000  0.50000000  1
  Cu  Cu42  1  0.50000000  0.50000000  0.50000000  1
  Cu  Cu43  1  0.50000000  0.75000000  0.50000000  1
  Cu  Cu44  1  0.75000000  0.00000000  0.50000000  1
  Cu  Cu45  1  0.75000000  0.25000000  0.50000000  1
  Cu  Cu46  1  0.75000000  0.50000000  0.50000000  1
  Cu  Cu47  1  0.75000000  0.75000000  0.50000000  1
  Cu  Cu48  1  0.16666667  0.08333333  0.56666667  1
  Cu  Cu49  1  0.16666667  0.33333333  0.56666667  1
  Cu  Cu50  1  0.16666667  0.58333333  0.56666667  1
  Cu  Cu51  1  0.16666667  0.83333333  0.56666667  1
  Cu  Cu52  1  0.41666667  0.08333333  0.56666667  1
  Cu  Cu53  1  0.41666667  0.33333333  0.56666667  1
  Cu  Cu54  1  0.41666667  0.58333333  0.56666667  1
  Cu  Cu55  1  0.41666667  0.83333333  0.56666667  1
  Cu  Cu56  1  0.66666667  0.08333333  0.56666667  1
  Cu  Cu57  1  0.66666667  0.33333333  0.56666667  1
  Cu  Cu58  1  0.66666667  0.58333333  0.56666667  1
  Cu  Cu59  1  0.66666667  0.83333333  0.56666667  1
  Cu  Cu60  1  0.91666667  0.08333333  0.56666667  1
  Cu  Cu61  1  0.91666667  0.33333333  0.56666667  1
  Cu  Cu62  1  0.91666667  0.58333333  0.56666667  1
  Cu  Cu63  1  0.91666667  0.83333333  0.56666667  1
  Cu  Cu64  1  0.08333333  0.16666667  0.63333333  1
  Cu  Cu65  1  0.08333333  0.41666667  0.63333333  1
  Cu  Cu66  1  0.08333333  0.66666667  0.63333333  1
  Cu  Cu67  1  0.08333333  0.91666667  0.63333333  1
  Cu  Cu68  1  0.33333333  0.16666667  0.63333333  1
  Cu  Cu69  1  0.33333333  0.41666667  0.63333333  1
  Cu  Cu70  1  0.33333333  0.66666667  0.63333333  1
  Cu  Cu71  1  0.33333333  0.91666667  0.63333333  1
  Cu  Cu72  1  0.58333333  0.16666667  0.63333333  1
  Cu  Cu73  1  0.58333333  0.41666667  0.63333333  1
  Cu  Cu74  1  0.58333333  0.66666667  0.63333333  1
  Cu  Cu75  1  0.58333333  0.91666667  0.63333333  1
  Cu  Cu76  1  0.83333333  0.16666667  0.63333333  1
  Cu  Cu77  1  0.83333333  0.41666667  0.63333333  1
  Cu  Cu78  1  0.83333333  0.66666667  0.63333333  1
  Cu  Cu79  1  0.83333333  0.91666667  0.63333333  1
