# generated using pymatgen
data_Rh
_symmetry_space_group_name_H-M   'P 1'
_cell_length_a   8.17386429
_cell_length_b   11.55958945
_cell_length_c   32.69545748
_cell_angle_alpha   89.99999846
_cell_angle_beta   90.00000315
_cell_angle_gamma   89.99999698
_symmetry_Int_Tables_number   1
_chemical_formula_structural   Rh
_chemical_formula_sum   Rh72
_cell_volume   3089.27984710
_cell_formula_units_Z   72
loop_
 _symmetry_equiv_pos_site_id
 _symmetry_equiv_pos_as_xyz
  1  'x, y, z'
loop_
 _atom_site_type_symbol
 _atom_site_label
 _atom_site_symmetry_multiplicity
 _atom_site_fract_x
 _atom_site_fract_y
 _atom_site_fract_z
 _atom_site_occupancy
  Rh  Rh0  1  0.08333277  0.00000017  0.60517533  1
  Rh  Rh1  1  0.08333405  0.33333377  0.60516925  1
  Rh  Rh2  1  0.08333474  0.66666607  0.60516968  1
  Rh  Rh3  1  0.41666634  0.00000040  0.60517453  1
  Rh  Rh4  1  0.41666703  0.33333708  0.60516984  1
  Rh  Rh5  1  0.41666621  0.66666255  0.60517025  1
  Rh  Rh6  1  0.75000090  0.00000128  0.60517468  1
  Rh  Rh7  1  0.74999894  0.33333331  0.60516866  1
  Rh  Rh8  1  0.74999906  0.66666542  0.60516878  1
  Rh  Rh9  1  0.24999970  0.16667256  0.64243735  1
  Rh  Rh10  1  0.25000164  0.49999951  0.64243068  1
  Rh  Rh11  1  0.24999950  0.83332791  0.64243676  1
  Rh  Rh12  1  0.58333334  0.16667244  0.64243631  1
  Rh  Rh13  1  0.58333101  0.49999994  0.64243277  1
  Rh  Rh14  1  0.58333269  0.83332763  0.64244132  1
  Rh  Rh15  1  0.91666701  0.16667373  0.64243284  1
  Rh  Rh16  1  0.91666736  0.49999979  0.64244357  1
  Rh  Rh17  1  0.91666785  0.83332648  0.64243636  1
  Rh  Rh18  1  0.08333333  0.00000000  0.52083333  1
  Rh  Rh19  1  0.08333333  0.33333333  0.52083333  1
  Rh  Rh20  1  0.08333333  0.66666667  0.52083333  1
  Rh  Rh21  1  0.41666666  0.00000000  0.52083333  1
  Rh  Rh22  1  0.41666666  0.33333333  0.52083333  1
  Rh  Rh23  1  0.41666666  0.66666667  0.52083333  1
  Rh  Rh24  1  0.75000000  0.00000000  0.52083333  1
  Rh  Rh25  1  0.75000000  0.33333333  0.52083333  1
  Rh  Rh26  1  0.75000000  0.66666667  0.52083333  1
  Rh  Rh27  1  0.25000000  0.16666667  0.56250000  1
  Rh  Rh28  1  0.25000000  0.50000000  0.56250000  1
  Rh  Rh29  1  0.25000000  0.83333333  0.56250000  1
  Rh  Rh30  1  0.58333334  0.16666667  0.56250000  1
  Rh  Rh31  1  0.58333334  0.50000000  0.56250000  1
  Rh  Rh32  1  0.58333334  0.83333333  0.56250000  1
  Rh  Rh33  1  0.91666667  0.16666667  0.56250000  1
  Rh  Rh34  1  0.91666667  0.50000000  0.56250000  1
  Rh  Rh35  1  0.91666667  0.83333333  0.56250000  1
  Rh  Rh36  1  0.08333333  0.00000000  0.43750000  1
  Rh  Rh37  1  0.08333333  0.33333333  0.43750000  1
  Rh  Rh38  1  0.08333333  0.66666667  0.43750000  1
  Rh  Rh39  1  0.41666666  0.00000000  0.43750000  1
  Rh  Rh40  1  0.41666666  0.33333333  0.43750000  1
  Rh  Rh41  1  0.41666666  0.66666667  0.43750000  1
  Rh  Rh42  1  0.75000000  0.00000000  0.43750000  1
  Rh  Rh43  1  0.75000000  0.33333333  0.43750000  1
  Rh  Rh44  1  0.75000000  0.66666667  0.43750000  1
  Rh  Rh45  1  0.25000000  0.16666667  0.47916667  1
  Rh  Rh46  1  0.25000000  0.50000000  0.47916667  1
  Rh  Rh47  1  0.25000000  0.83333333  0.47916667  1
  Rh  Rh48  1  0.58333334  0.16666667  0.47916667  1
  Rh  Rh49  1  0.58333334  0.50000000  0.47916667  1
  Rh  Rh50  1  0.58333334  0.83333333  0.47916667  1
  Rh  Rh51  1  0.91666667  0.16666667  0.47916667  1
  Rh  Rh52  1  0.91666667  0.50000000  0.47916667  1
  Rh  Rh53  1  0.91666667  0.83333333  0.47916667  1
  Rh  Rh54  1  0.08333333  0.00000000  0.35416667  1
  Rh  Rh55  1  0.08333333  0.33333333  0.35416667  1
  Rh  Rh56  1  0.08333333  0.66666667  0.35416667  1
  Rh  Rh57  1  0.41666666  0.00000000  0.35416667  1
  Rh  Rh58  1  0.41666666  0.33333333  0.35416667  1
  Rh  Rh59  1  0.41666666  0.66666667  0.35416667  1
  Rh  Rh60  1  0.75000000  0.00000000  0.35416667  1
  Rh  Rh61  1  0.75000000  0.33333333  0.35416667  1
  Rh  Rh62  1  0.75000000  0.66666667  0.35416667  1
  Rh  Rh63  1  0.25000000  0.16666667  0.39583333  1
  Rh  Rh64  1  0.25000000  0.50000000  0.39583333  1
  Rh  Rh65  1  0.25000000  0.83333333  0.39583333  1
  Rh  Rh66  1  0.58333334  0.16666667  0.39583333  1
  Rh  Rh67  1  0.58333334  0.50000000  0.39583333  1
  Rh  Rh68  1  0.58333334  0.83333333  0.39583333  1
  Rh  Rh69  1  0.91666667  0.16666667  0.39583333  1
  Rh  Rh70  1  0.91666667  0.50000000  0.39583333  1
  Rh  Rh71  1  0.91666667  0.83333333  0.39583333  1
