# generated using pymatgen
data_Rh
_symmetry_space_group_name_H-M   'P 1'
_cell_length_a   8.17386425
_cell_length_b   8.17386433
_cell_length_c   31.18471712
_cell_angle_alpha   87.49622532
_cell_angle_beta   87.49622965
_cell_angle_gamma   60.00000007
_symmetry_Int_Tables_number   1
_chemical_formula_structural   Rh
_chemical_formula_sum   Rh45
_cell_volume   1802.07991243
_cell_formula_units_Z   45
loop_
 _symmetry_equiv_pos_site_id
 _symmetry_equiv_pos_as_xyz
  1  'x, y, z'
loop_
 _atom_site_type_symbol
 _atom_site_label
 _atom_site_symmetry_multiplicity
 _atom_site_fract_x
 _atom_site_fract_y
 _atom_site_fract_z
 _atom_site_occupancy
  Rh  Rh0  1  0.26206432  0.26206456  0.64140885  1
  Rh  Rh1  1  0.26206440  0.59539780  0.64140877  1
  Rh  Rh2  1  0.26206457  0.92873086  0.64140872  1
  Rh  Rh3  1  0.59539783  0.26206435  0.64140868  1
  Rh  Rh4  1  0.59539788  0.59539795  0.64140856  1
  Rh  Rh5  1  0.59539810  0.92873071  0.64140865  1
  Rh  Rh6  1  0.92873098  0.26206458  0.64140865  1
  Rh  Rh7  1  0.92873080  0.59539792  0.64140873  1
  Rh  Rh8  1  0.92873098  0.92873102  0.64140872  1
  Rh  Rh9  1  0.04761905  0.04761905  0.57142857  1
  Rh  Rh10  1  0.04761905  0.38095238  0.57142857  1
  Rh  Rh11  1  0.04761905  0.71428571  0.57142857  1
  Rh  Rh12  1  0.38095238  0.04761905  0.57142857  1
  Rh  Rh13  1  0.38095238  0.38095238  0.57142857  1
  Rh  Rh14  1  0.38095238  0.71428571  0.57142857  1
  Rh  Rh15  1  0.71428571  0.04761905  0.57142857  1
  Rh  Rh16  1  0.71428571  0.38095238  0.57142857  1
  Rh  Rh17  1  0.71428571  0.71428571  0.57142857  1
  Rh  Rh18  1  0.16666667  0.16666667  0.50000000  1
  Rh  Rh19  1  0.16666667  0.50000000  0.50000000  1
  Rh  Rh20  1  0.16666667  0.83333333  0.50000000  1
  Rh  Rh21  1  0.50000000  0.16666667  0.50000000  1
  Rh  Rh22  1  0.50000000  0.50000000  0.50000000  1
  Rh  Rh23  1  0.50000000  0.83333333  0.50000000  1
  Rh  Rh24  1  0.83333333  0.16666667  0.50000000  1
  Rh  Rh25  1  0.83333333  0.50000000  0.50000000  1
  Rh  Rh26  1  0.83333333  0.83333333  0.50000000  1
  Rh  Rh27  1  0.28571429  0.28571429  0.42857143  1
  Rh  Rh28  1  0.28571429  0.61904762  0.42857143  1
  Rh  Rh29  1  0.28571429  0.95238095  0.42857143  1
  Rh  Rh30  1  0.61904762  0.28571429  0.42857143  1
  Rh  Rh31  1  0.61904762  0.61904762  0.42857143  1
  Rh  Rh32  1  0.61904762  0.95238095  0.42857143  1
  Rh  Rh33  1  0.95238095  0.28571429  0.42857143  1
  Rh  Rh34  1  0.95238095  0.61904762  0.42857143  1
  Rh  Rh35  1  0.95238095  0.95238095  0.42857143  1
  Rh  Rh36  1  0.07142857  0.07142857  0.35714286  1
  Rh  Rh37  1  0.07142857  0.40476190  0.35714286  1
  Rh  Rh38  1  0.07142857  0.73809524  0.35714286  1
  Rh  Rh39  1  0.40476190  0.07142857  0.35714286  1
  Rh  Rh40  1  0.40476190  0.40476190  0.35714286  1
  Rh  Rh41  1  0.40476190  0.73809524  0.35714286  1
  Rh  Rh42  1  0.73809524  0.07142857  0.35714286  1
  Rh  Rh43  1  0.73809524  0.40476190  0.35714286  1
  Rh  Rh44  1  0.73809524  0.73809524  0.35714286  1
